<?xml version="1.0" encoding="UTF-8"?>

<!-- generated on 2025-09-25 17:49:34 by Eclipse SUMO netconvert Version 1.24.0
<netconvertConfiguration xmlns:xsi="http://www.w3.org/2001/XMLSchema-instance" xsi:noNamespaceSchemaLocation="http://sumo.dlr.de/xsd/netconvertConfiguration.xsd">

    <input>
        <osm-files value="osm files/map.osm"/>
    </input>

    <output>
        <output-file value="bhuvaneshwar.net.xml"/>
    </output>

    <projection>
        <proj.utm value="true"/>
    </projection>

    <tls_building>
        <tls.guess value="true"/>
    </tls_building>

</netconvertConfiguration>
-->

<net version="1.20" junctionCornerDetail="5" limitTurnSpeed="5.50" xmlns:xsi="http://www.w3.org/2001/XMLSchema-instance" xsi:noNamespaceSchemaLocation="http://sumo.dlr.de/xsd/net_file.xsd">

    <location netOffset="-375088.20,-2242426.54" convBoundary="0.00,0.00,1410.11,1021.57" origBoundary="85.803844,20.275646,85.817346,20.284812" projParameter="+proj=utm +zone=45 +ellps=WGS84 +datum=WGS84 +units=m +no_defs"/>

    <type id="highway.residential" priority="3" numLanes="1" speed="13.89" disallow="tram rail_urban rail rail_electric rail_fast ship container cable_car subway aircraft wheelchair scooter drone" oneway="0"/>
    <type id="highway.service" priority="1" numLanes="1" speed="5.56" allow="pedestrian delivery bicycle" oneway="0"/>
    <type id="highway.tertiary" priority="10" numLanes="1" speed="22.22" disallow="tram rail_urban rail rail_electric rail_fast ship container cable_car subway aircraft wheelchair scooter drone" oneway="0"/>

    <edge id=":293453059_0" function="internal">
        <lane id=":293453059_0_0" index="0" disallow="tram rail_urban rail rail_electric rail_fast ship container cable_car subway aircraft wheelchair scooter drone" speed="13.89" length="14.49" shape="841.49,709.08 830.65,699.48"/>
    </edge>
    <edge id=":293453059_1" function="internal">
        <lane id=":293453059_1_0" index="0" disallow="tram rail_urban rail rail_electric rail_fast ship container cable_car subway aircraft wheelchair scooter drone" speed="7.86" length="4.19" shape="841.49,709.08 838.87,706.03 838.82,705.87"/>
    </edge>
    <edge id=":293453059_2" function="internal">
        <lane id=":293453059_2_0" index="0" disallow="tram rail_urban rail rail_electric rail_fast ship container cable_car subway aircraft wheelchair scooter drone" speed="3.65" length="1.44" shape="841.49,709.08 841.12,707.69"/>
    </edge>
    <edge id=":293453059_9" function="internal">
        <lane id=":293453059_9_0" index="0" disallow="tram rail_urban rail rail_electric rail_fast ship container cable_car subway aircraft wheelchair scooter drone" speed="7.86" length="10.31" shape="838.82,705.87 837.94,702.94 838.70,699.80 841.14,696.61"/>
    </edge>
    <edge id=":293453059_10" function="internal">
        <lane id=":293453059_10_0" index="0" disallow="tram rail_urban rail rail_electric rail_fast ship container cable_car subway aircraft wheelchair scooter drone" speed="3.65" length="3.23" shape="841.12,707.69 841.34,706.82 842.17,706.48 843.60,706.67"/>
    </edge>
    <edge id=":293453059_3" function="internal">
        <lane id=":293453059_3_0" index="0" disallow="tram rail_urban rail rail_electric rail_fast ship container cable_car subway aircraft wheelchair scooter drone" speed="6.34" length="9.04" shape="843.38,698.89 841.85,700.88 841.38,702.84 841.96,704.77 843.60,706.67"/>
    </edge>
    <edge id=":293453059_4" function="internal">
        <lane id=":293453059_4_0" index="0" disallow="tram rail_urban rail rail_electric rail_fast ship container cable_car subway aircraft wheelchair scooter drone" speed="8.23" length="14.33" shape="843.38,698.89 840.18,701.28 836.99,702.17 833.81,701.57 830.65,699.48"/>
    </edge>
    <edge id=":293453059_5" function="internal">
        <lane id=":293453059_5_0" index="0" disallow="tram rail_urban rail rail_electric rail_fast ship container cable_car subway aircraft wheelchair scooter drone" speed="3.65" length="4.67" shape="843.38,698.89 841.96,699.16 841.11,698.87 840.84,698.02 841.14,696.61"/>
    </edge>
    <edge id=":293453059_6" function="internal">
        <lane id=":293453059_6_0" index="0" disallow="tram rail_urban rail rail_electric rail_fast ship container cable_car subway aircraft wheelchair scooter drone" speed="6.78" length="9.41" shape="832.79,697.10 834.84,698.45 836.92,698.81 839.02,698.20 841.14,696.61"/>
    </edge>
    <edge id=":293453059_7" function="internal">
        <lane id=":293453059_7_0" index="0" disallow="tram rail_urban rail rail_electric rail_fast ship container cable_car subway aircraft wheelchair scooter drone" speed="13.89" length="14.44" shape="832.79,697.10 843.60,706.67"/>
    </edge>
    <edge id=":293453059_8" function="internal">
        <lane id=":293453059_8_0" index="0" disallow="tram rail_urban rail rail_electric rail_fast ship container cable_car subway aircraft wheelchair scooter drone" speed="3.65" length="1.44" shape="832.79,697.10 833.14,698.49"/>
    </edge>
    <edge id=":293453059_11" function="internal">
        <lane id=":293453059_11_0" index="0" disallow="tram rail_urban rail rail_electric rail_fast ship container cable_car subway aircraft wheelchair scooter drone" speed="3.65" length="3.23" shape="833.14,698.49 832.91,699.36 832.07,699.68 830.65,699.48"/>
    </edge>
    <edge id=":293453085_0" function="internal">
        <lane id=":293453085_0_0" index="0" disallow="tram rail_urban rail rail_electric rail_fast ship container cable_car subway aircraft wheelchair scooter drone" speed="3.65" length="4.67" shape="938.74,515.03 938.64,513.59 939.02,512.79 939.90,512.61 941.27,513.06"/>
    </edge>
    <edge id=":293453286_0" function="internal">
        <lane id=":293453286_0_0" index="0" disallow="tram rail_urban rail rail_electric rail_fast ship container cable_car subway aircraft wheelchair scooter drone" speed="3.65" length="4.67" shape="535.66,445.33 535.40,443.91 535.69,443.07 536.55,442.80 537.95,443.10"/>
    </edge>
    <edge id=":293453313_0" function="internal">
        <lane id=":293453313_0_0" index="0" disallow="tram rail_urban rail rail_electric rail_fast ship container cable_car subway aircraft wheelchair scooter drone" speed="3.65" length="4.67" shape="644.46,583.83 645.88,583.56 646.72,583.85 647.00,584.70 646.70,586.11"/>
    </edge>
    <edge id=":293463187_0" function="internal">
        <lane id=":293463187_0_0" index="0" disallow="tram rail_urban rail rail_electric rail_fast ship container cable_car subway aircraft wheelchair scooter drone" speed="22.22" length="9.44" shape="594.36,641.94 587.79,635.17"/>
    </edge>
    <edge id=":293463187_1" function="internal">
        <lane id=":293463187_1_0" index="0" disallow="tram rail_urban rail rail_electric rail_fast ship container cable_car subway aircraft wheelchair scooter drone" speed="6.09" length="7.80" shape="594.36,641.94 592.56,639.84 591.59,638.03 591.46,636.50 592.18,635.24"/>
    </edge>
    <edge id=":293463187_2" function="internal">
        <lane id=":293463187_2_0" index="0" disallow="tram rail_urban rail rail_electric rail_fast ship container cable_car subway aircraft wheelchair scooter drone" speed="6.06" length="7.81" shape="594.42,637.53 593.15,638.22 591.62,638.06 589.84,637.04 587.79,635.17"/>
    </edge>
    <edge id=":293463187_3" function="internal">
        <lane id=":293463187_3_0" index="0" disallow="tram rail_urban rail rail_electric rail_fast ship container cable_car subway aircraft wheelchair scooter drone" speed="3.65" length="4.67" shape="594.42,637.53 593.00,637.80 592.16,637.51 591.88,636.66 592.18,635.24"/>
    </edge>
    <edge id=":293463189_0" function="internal">
        <lane id=":293463189_0_0" index="0" disallow="tram rail_urban rail rail_electric rail_fast ship container cable_car subway aircraft wheelchair scooter drone" speed="22.22" length="9.42" shape="737.26,644.65 731.00,651.69"/>
    </edge>
    <edge id=":293463189_1" function="internal">
        <lane id=":293463189_1_0" index="0" disallow="tram rail_urban rail rail_electric rail_fast ship container cable_car subway aircraft wheelchair scooter drone" speed="6.00" length="7.99" shape="737.26,644.65 735.23,646.60 733.44,647.63 731.88,647.74 730.56,646.94"/>
    </edge>
    <edge id=":293463189_2" function="internal">
        <lane id=":293463189_2_0" index="0" disallow="tram rail_urban rail rail_electric rail_fast ship container cable_car subway aircraft wheelchair scooter drone" speed="6.31" length="7.90" shape="732.87,644.73 733.59,646.04 733.52,647.64 732.65,649.52 731.00,651.69"/>
    </edge>
    <edge id=":293463189_3" function="internal">
        <lane id=":293463189_3_0" index="0" disallow="tram rail_urban rail rail_electric rail_fast ship container cable_car subway aircraft wheelchair scooter drone" speed="3.65" length="4.67" shape="732.87,644.73 733.12,646.15 732.82,646.99 731.97,647.25 730.56,646.94"/>
    </edge>
    <edge id=":293463190_0" function="internal">
        <lane id=":293463190_0_0" index="0" disallow="tram rail_urban rail rail_electric rail_fast ship container cable_car subway aircraft wheelchair scooter drone" speed="13.89" length="10.02" shape="761.22,639.38 753.84,632.60"/>
    </edge>
    <edge id=":293463190_1" function="internal">
        <lane id=":293463190_1_0" index="0" disallow="tram rail_urban rail rail_electric rail_fast ship container cable_car subway aircraft wheelchair scooter drone" speed="7.16" length="11.85" shape="761.22,639.38 759.63,637.28 759.41,634.88 760.55,632.19 763.05,629.21"/>
    </edge>
    <edge id=":293463190_2" function="internal">
        <lane id=":293463190_2_0" index="0" disallow="tram rail_urban rail rail_electric rail_fast ship container cable_car subway aircraft wheelchair scooter drone" speed="3.65" length="4.67" shape="761.22,639.38 760.83,637.99 761.05,637.12 761.88,636.78 763.31,636.95"/>
    </edge>
    <edge id=":293463190_3" function="internal">
        <lane id=":293463190_3_0" index="0" disallow="tram rail_urban rail rail_electric rail_fast ship container cable_car subway aircraft wheelchair scooter drone" speed="6.16" length="7.94" shape="756.11,630.35 757.62,631.36 759.27,631.50 761.09,630.79 763.05,629.21"/>
    </edge>
    <edge id=":293463190_4" function="internal">
        <lane id=":293463190_4_0" index="0" disallow="tram rail_urban rail rail_electric rail_fast ship container cable_car subway aircraft wheelchair scooter drone" speed="13.89" length="9.77" shape="756.11,630.35 763.31,636.95"/>
    </edge>
    <edge id=":293463190_5" function="internal">
        <lane id=":293463190_5_0" index="0" disallow="tram rail_urban rail rail_electric rail_fast ship container cable_car subway aircraft wheelchair scooter drone" speed="3.65" length="4.67" shape="756.11,630.35 756.39,631.76 756.10,632.61 755.25,632.89 753.84,632.60"/>
    </edge>
    <edge id=":293463190_6" function="internal">
        <lane id=":293463190_6_0" index="0" disallow="tram rail_urban rail rail_electric rail_fast ship container cable_car subway aircraft wheelchair scooter drone" speed="6.26" length="7.94" shape="753.03,639.63 754.47,637.66 755.09,635.82 754.88,634.14 753.84,632.60"/>
    </edge>
    <edge id=":293463190_7" function="internal">
        <lane id=":293463190_7_0" index="0" disallow="tram rail_urban rail rail_electric rail_fast ship container cable_car subway aircraft wheelchair scooter drone" speed="22.22" length="14.46" shape="753.03,639.63 763.05,629.21"/>
    </edge>
    <edge id=":293463190_8" function="internal">
        <lane id=":293463190_8_0" index="0" disallow="tram rail_urban rail rail_electric rail_fast ship container cable_car subway aircraft wheelchair scooter drone" speed="7.45" length="11.91" shape="753.03,639.63 755.87,637.04 758.53,635.73 761.01,635.70 763.31,636.95"/>
    </edge>
    <edge id=":293465537_0" function="internal">
        <lane id=":293465537_0_0" index="0" disallow="tram rail_urban rail rail_electric rail_fast ship container cable_car subway aircraft wheelchair scooter drone" speed="6.14" length="7.54" shape="673.37,728.83 674.72,726.94 675.30,725.19 675.09,723.59 674.11,722.13"/>
    </edge>
    <edge id=":293465537_1" function="internal">
        <lane id=":293465537_1_0" index="0" disallow="tram rail_urban rail rail_electric rail_fast ship container cable_car subway aircraft wheelchair scooter drone" speed="22.22" length="10.71" shape="673.37,728.83 680.48,720.82"/>
    </edge>
    <edge id=":3718265545_0" function="internal">
        <lane id=":3718265545_0_0" index="0" disallow="tram rail_urban rail rail_electric rail_fast ship container cable_car subway aircraft wheelchair scooter drone" speed="6.39" length="9.04" shape="826.10,695.39 824.03,694.00 822.04,693.64 820.13,694.31 818.30,696.01"/>
    </edge>
    <edge id=":3718265545_1" function="internal">
        <lane id=":3718265545_1_0" index="0" disallow="tram rail_urban rail rail_electric rail_fast ship container cable_car subway aircraft wheelchair scooter drone" speed="13.89" length="14.44" shape="826.10,695.39 815.26,685.85"/>
    </edge>
    <edge id=":3718265545_2" function="internal">
        <lane id=":3718265545_2_0" index="0" disallow="tram rail_urban rail rail_electric rail_fast ship container cable_car subway aircraft wheelchair scooter drone" speed="3.65" length="1.44" shape="826.10,695.39 825.75,693.99"/>
    </edge>
    <edge id=":3718265545_9" function="internal">
        <lane id=":3718265545_9_0" index="0" disallow="tram rail_urban rail rail_electric rail_fast ship container cable_car subway aircraft wheelchair scooter drone" speed="3.65" length="3.23" shape="825.75,693.99 825.98,693.13 826.82,692.80 828.24,693.01"/>
    </edge>
    <edge id=":3718265545_3" function="internal">
        <lane id=":3718265545_3_0" index="0" disallow="tram rail_urban rail rail_electric rail_fast ship container cable_car subway aircraft wheelchair scooter drone" speed="13.89" length="14.51" shape="817.35,683.42 828.24,693.01"/>
    </edge>
    <edge id=":3718265545_4" function="internal">
        <lane id=":3718265545_4_0" index="0" disallow="tram rail_urban rail rail_electric rail_fast ship container cable_car subway aircraft wheelchair scooter drone" speed="8.12" length="4.09" shape="817.35,683.42 819.87,686.32 819.94,686.56"/>
    </edge>
    <edge id=":3718265545_5" function="internal">
        <lane id=":3718265545_5_0" index="0" disallow="tram rail_urban rail rail_electric rail_fast ship container cable_car subway aircraft wheelchair scooter drone" speed="3.65" length="1.44" shape="817.35,683.42 817.74,684.81"/>
    </edge>
    <edge id=":3718265545_10" function="internal">
        <lane id=":3718265545_10_0" index="0" disallow="tram rail_urban rail rail_electric rail_fast ship container cable_car subway aircraft wheelchair scooter drone" speed="8.12" length="10.21" shape="819.94,686.56 820.87,689.39 820.35,692.62 818.30,696.01"/>
    </edge>
    <edge id=":3718265545_11" function="internal">
        <lane id=":3718265545_11_0" index="0" disallow="tram rail_urban rail rail_electric rail_fast ship container cable_car subway aircraft wheelchair scooter drone" speed="3.65" length="3.23" shape="817.74,684.81 817.52,685.68 816.69,686.02 815.26,685.85"/>
    </edge>
    <edge id=":3718265545_6" function="internal">
        <lane id=":3718265545_6_0" index="0" disallow="tram rail_urban rail rail_electric rail_fast ship container cable_car subway aircraft wheelchair scooter drone" speed="6.65" length="9.26" shape="815.81,694.01 817.15,691.79 817.50,689.70 816.88,687.72 815.26,685.85"/>
    </edge>
    <edge id=":3718265545_7" function="internal">
        <lane id=":3718265545_7_0" index="0" disallow="tram rail_urban rail rail_electric rail_fast ship container cable_car subway aircraft wheelchair scooter drone" speed="7.91" length="14.40" shape="815.81,694.01 818.72,691.30 821.77,690.23 824.94,690.80 828.24,693.01"/>
    </edge>
    <edge id=":3718265545_8" function="internal">
        <lane id=":3718265545_8_0" index="0" disallow="tram rail_urban rail rail_electric rail_fast ship container cable_car subway aircraft wheelchair scooter drone" speed="3.65" length="4.67" shape="815.81,694.01 817.19,693.57 818.06,693.76 818.43,694.58 818.30,696.01"/>
    </edge>
    <edge id=":3718265551_0" function="internal">
        <lane id=":3718265551_0_0" index="0" disallow="tram rail_urban rail rail_electric rail_fast ship container cable_car subway aircraft wheelchair scooter drone" speed="6.35" length="9.04" shape="800.26,727.55 798.19,726.14 796.21,725.78 794.31,726.46 792.50,728.19"/>
    </edge>
    <edge id=":3718265551_1" function="internal">
        <lane id=":3718265551_1_0" index="0" disallow="tram rail_urban rail rail_electric rail_fast ship container cable_car subway aircraft wheelchair scooter drone" speed="8.22" length="14.32" shape="800.26,727.55 797.70,724.49 796.64,721.36 797.07,718.16 798.99,714.88"/>
    </edge>
    <edge id=":3718265551_2" function="internal">
        <lane id=":3718265551_2_0" index="0" disallow="tram rail_urban rail rail_electric rail_fast ship container cable_car subway aircraft wheelchair scooter drone" speed="3.65" length="4.67" shape="800.26,727.55 799.92,726.15 800.16,725.29 800.99,724.97 802.42,725.19"/>
    </edge>
    <edge id=":3718265551_3" function="internal">
        <lane id=":3718265551_3_0" index="0" disallow="tram rail_urban rail rail_electric rail_fast ship container cable_car subway aircraft wheelchair scooter drone" speed="6.77" length="9.39" shape="801.48,716.89 800.25,719.01 799.99,721.10 800.72,723.16 802.42,725.19"/>
    </edge>
    <edge id=":3718265551_4" function="internal">
        <lane id=":3718265551_4_0" index="0" disallow="tram rail_urban rail rail_electric rail_fast ship container cable_car subway aircraft wheelchair scooter drone" speed="13.89" length="14.44" shape="801.48,716.89 792.50,728.19"/>
    </edge>
    <edge id=":3718265551_5" function="internal">
        <lane id=":3718265551_5_0" index="0" disallow="tram rail_urban rail rail_electric rail_fast ship container cable_car subway aircraft wheelchair scooter drone" speed="3.65" length="1.44" shape="801.48,716.89 800.11,717.32"/>
    </edge>
    <edge id=":3718265551_9" function="internal">
        <lane id=":3718265551_9_0" index="0" disallow="tram rail_urban rail rail_electric rail_fast ship container cable_car subway aircraft wheelchair scooter drone" speed="3.65" length="3.23" shape="800.11,717.32 799.23,717.13 798.86,716.32 798.99,714.88"/>
    </edge>
    <edge id=":3718265551_6" function="internal">
        <lane id=":3718265551_6_0" index="0" disallow="tram rail_urban rail rail_electric rail_fast ship container cable_car subway aircraft wheelchair scooter drone" speed="13.89" length="14.48" shape="789.98,726.22 798.99,714.88"/>
    </edge>
    <edge id=":3718265551_7" function="internal">
        <lane id=":3718265551_7_0" index="0" disallow="tram rail_urban rail rail_electric rail_fast ship container cable_car subway aircraft wheelchair scooter drone" speed="7.87" length="4.18" shape="789.98,726.22 792.88,723.44 793.04,723.39"/>
    </edge>
    <edge id=":3718265551_8" function="internal">
        <lane id=":3718265551_8_0" index="0" disallow="tram rail_urban rail rail_electric rail_fast ship container cable_car subway aircraft wheelchair scooter drone" speed="3.65" length="1.44" shape="789.98,726.22 791.35,725.76"/>
    </edge>
    <edge id=":3718265551_10" function="internal">
        <lane id=":3718265551_10_0" index="0" disallow="tram rail_urban rail rail_electric rail_fast ship container cable_car subway aircraft wheelchair scooter drone" speed="7.87" length="10.31" shape="793.04,723.39 795.92,722.35 799.10,722.93 802.42,725.19"/>
    </edge>
    <edge id=":3718265551_11" function="internal">
        <lane id=":3718265551_11_0" index="0" disallow="tram rail_urban rail rail_electric rail_fast ship container cable_car subway aircraft wheelchair scooter drone" speed="3.65" length="3.23" shape="791.35,725.76 792.23,725.94 792.61,726.75 792.50,728.19"/>
    </edge>
    <edge id=":3718265574_0" function="internal">
        <lane id=":3718265574_0_0" index="0" disallow="tram rail_urban rail rail_electric rail_fast ship container cable_car subway aircraft wheelchair scooter drone" speed="3.65" length="4.67" shape="1106.17,772.65 1107.62,772.67 1108.39,773.12 1108.48,774.01 1107.91,775.34"/>
    </edge>
    <edge id=":3718265575_0" function="internal">
        <lane id=":3718265575_0_0" index="0" disallow="tram rail_urban rail rail_electric rail_fast ship container cable_car subway aircraft wheelchair scooter drone" speed="3.65" length="4.67" shape="856.80,774.91 857.15,776.31 856.90,777.17 856.07,777.49 854.64,777.27"/>
    </edge>
    <edge id=":4714584749_0" function="internal">
        <lane id=":4714584749_0_0" index="0" disallow="tram rail_urban rail rail_electric rail_fast ship container cable_car subway aircraft wheelchair scooter drone" speed="6.00" length="7.87" shape="753.70,632.46 752.17,631.43 750.54,631.30 748.80,632.07 746.96,633.75"/>
    </edge>
    <edge id=":4714584749_1" function="internal">
        <lane id=":4714584749_1_0" index="0" disallow="tram rail_urban rail rail_electric rail_fast ship container cable_car subway aircraft wheelchair scooter drone" speed="3.65" length="4.67" shape="753.70,632.46 753.42,631.04 753.71,630.20 754.56,629.92 755.97,630.21"/>
    </edge>
    <edge id=":4714584749_2" function="internal">
        <lane id=":4714584749_2_0" index="0" disallow="tram rail_urban rail rail_electric rail_fast ship container cable_car subway aircraft wheelchair scooter drone" speed="6.13" length="7.97" shape="757.01,623.27 755.43,625.17 754.73,626.96 754.91,628.64 755.97,630.21"/>
    </edge>
    <edge id=":4714584749_3" function="internal">
        <lane id=":4714584749_3_0" index="0" disallow="tram rail_urban rail rail_electric rail_fast ship container cable_car subway aircraft wheelchair scooter drone" speed="22.22" length="14.52" shape="757.01,623.27 746.96,633.75"/>
    </edge>
    <edge id=":4963217515_0" function="internal">
        <lane id=":4963217515_0_0" index="0" disallow="tram rail_urban rail rail_electric rail_fast ship container cable_car subway aircraft wheelchair scooter drone" speed="5.95" length="7.86" shape="666.37,730.44 667.87,731.50 669.48,731.64 671.22,730.87 673.06,729.18"/>
    </edge>
    <edge id=":4963217515_1" function="internal">
        <lane id=":4963217515_1_0" index="0" disallow="tram rail_urban rail rail_electric rail_fast ship container cable_car subway aircraft wheelchair scooter drone" speed="22.22" length="11.21" shape="665.63,737.57 673.06,729.18"/>
    </edge>
    <edge id=":7214626129_0" function="internal">
        <lane id=":7214626129_0_0" index="0" disallow="tram rail_urban rail rail_electric rail_fast ship container cable_car subway aircraft wheelchair scooter drone" speed="5.98" length="7.85" shape="673.97,721.99 672.45,720.96 670.83,720.84 669.10,721.62 667.26,723.31"/>
    </edge>
    <edge id=":7214626129_1" function="internal">
        <lane id=":7214626129_1_0" index="0" disallow="tram rail_urban rail rail_electric rail_fast ship container cable_car subway aircraft wheelchair scooter drone" speed="22.22" length="9.84" shape="673.97,721.99 667.03,715.01"/>
    </edge>
    <edge id=":7214626129_2" function="internal">
        <lane id=":7214626129_2_0" index="0" disallow="tram rail_urban rail rail_electric rail_fast ship container cable_car subway aircraft wheelchair scooter drone" speed="22.22" length="11.40" shape="674.84,714.79 667.26,723.31"/>
    </edge>
    <edge id=":7214626129_3" function="internal">
        <lane id=":7214626129_3_0" index="0" disallow="tram rail_urban rail rail_electric rail_fast ship container cable_car subway aircraft wheelchair scooter drone" speed="6.38" length="4.21" shape="674.84,714.79 672.93,716.40 671.29,716.89"/>
    </edge>
    <edge id=":7214626129_4" function="internal">
        <lane id=":7214626129_4_0" index="0" disallow="tram rail_urban rail rail_electric rail_fast ship container cable_car subway aircraft wheelchair scooter drone" speed="6.38" length="4.83" shape="671.29,716.89 670.99,716.97 669.03,716.51 667.03,715.01"/>
    </edge>
    <edge id=":7214626130_0" function="internal">
        <lane id=":7214626130_0_0" index="0" disallow="tram rail_urban rail rail_electric rail_fast ship container cable_car subway aircraft wheelchair scooter drone" speed="6.25" length="7.69" shape="667.15,723.44 665.75,725.39 665.13,727.18 665.29,728.81 666.23,730.29"/>
    </edge>
    <edge id=":7214626130_1" function="internal">
        <lane id=":7214626130_1_0" index="0" disallow="tram rail_urban rail rail_electric rail_fast ship container cable_car subway aircraft wheelchair scooter drone" speed="22.22" length="10.82" shape="667.15,723.44 659.99,731.55"/>
    </edge>
    <edge id=":7214626130_2" function="internal">
        <lane id=":7214626130_2_0" index="0" disallow="tram rail_urban rail rail_electric rail_fast ship container cable_car subway aircraft wheelchair scooter drone" speed="22.22" length="9.27" shape="659.84,723.57 666.23,730.29"/>
    </edge>
    <edge id=":7214626130_3" function="internal">
        <lane id=":7214626130_3_0" index="0" disallow="tram rail_urban rail rail_electric rail_fast ship container cable_car subway aircraft wheelchair scooter drone" speed="6.68" length="3.88" shape="659.84,723.57 661.25,725.54 661.60,726.96"/>
    </edge>
    <edge id=":7214626130_4" function="internal">
        <lane id=":7214626130_4_0" index="0" disallow="tram rail_urban rail rail_electric rail_fast ship container cable_car subway aircraft wheelchair scooter drone" speed="6.68" length="5.05" shape="661.60,726.96 661.74,727.53 661.32,729.53 659.99,731.55"/>
    </edge>
    <edge id=":8108065240_0" function="internal">
        <lane id=":8108065240_0_0" index="0" allow="pedestrian delivery bicycle" speed="5.56" length="5.69" shape="599.21,777.04 598.05,776.35 596.76,776.01 595.34,776.02 593.79,776.38"/>
    </edge>
    <edge id=":8108065240_1" function="internal">
        <lane id=":8108065240_1_0" index="0" allow="pedestrian delivery bicycle" speed="5.56" length="8.56" shape="599.21,777.04 597.39,775.33 596.18,773.55 595.58,771.68 595.59,769.74"/>
    </edge>
    <edge id=":8108065240_2" function="internal">
        <lane id=":8108065240_2_0" index="0" allow="pedestrian delivery bicycle" speed="3.67" length="4.76" shape="599.21,777.04 598.49,775.76 598.49,774.85 599.23,774.30 600.69,774.13"/>
    </edge>
    <edge id=":8108065240_3" function="internal">
        <lane id=":8108065240_3_0" index="0" allow="pedestrian delivery bicycle" speed="5.56" length="4.56" shape="598.75,770.24 598.75,771.28 599.07,772.27 599.71,773.22 600.69,774.13"/>
    </edge>
    <edge id=":8108065240_4" function="internal">
        <lane id=":8108065240_4_0" index="0" allow="pedestrian delivery bicycle" speed="5.56" length="8.33" shape="598.75,770.24 598.16,772.41 597.14,774.15 595.68,775.47 593.79,776.38"/>
    </edge>
    <edge id=":8108065240_5" function="internal">
        <lane id=":8108065240_5_0" index="0" allow="pedestrian delivery bicycle" speed="3.65" length="4.67" shape="598.75,770.24 597.78,771.30 596.92,771.57 596.20,771.05 595.59,769.74"/>
    </edge>
    <edge id=":8108065240_6" function="internal">
        <lane id=":8108065240_6_0" index="0" allow="pedestrian delivery bicycle" speed="5.56" length="4.81" shape="592.79,773.34 593.85,772.82 594.67,772.05 595.25,771.02 595.59,769.74"/>
    </edge>
    <edge id=":8108065240_7" function="internal">
        <lane id=":8108065240_7_0" index="0" allow="pedestrian delivery bicycle" speed="5.56" length="8.26" shape="592.79,773.34 595.10,772.79 597.19,772.74 599.05,773.18 600.69,774.13"/>
    </edge>
    <edge id=":8108065240_8" function="internal">
        <lane id=":8108065240_8_0" index="0" allow="pedestrian delivery bicycle" speed="3.65" length="4.67" shape="592.79,773.34 594.18,773.72 594.81,774.36 594.68,775.24 593.79,776.38"/>
    </edge>
    <edge id=":8108065242_0" function="internal">
        <lane id=":8108065242_0_0" index="0" allow="pedestrian delivery bicycle" speed="3.65" length="4.67" shape="593.98,711.92 594.74,710.69 595.53,710.27 596.34,710.64 597.18,711.81"/>
    </edge>
    <edge id=":8108065260_0" function="internal">
        <lane id=":8108065260_0_0" index="0" allow="pedestrian delivery bicycle" speed="5.56" length="11.53" shape="570.96,695.71 559.44,696.23"/>
    </edge>
    <edge id=":8108065260_1" function="internal">
        <lane id=":8108065260_1_0" index="0" allow="pedestrian delivery bicycle" speed="5.56" length="12.32" shape="570.96,695.71 568.96,695.36 566.60,694.15 563.89,692.09 560.82,689.18"/>
    </edge>
    <edge id=":8108065260_2" function="internal">
        <lane id=":8108065260_2_0" index="0" allow="pedestrian delivery bicycle" speed="3.65" length="4.67" shape="570.96,695.71 569.73,694.96 569.30,694.18 569.66,693.36 570.83,692.51"/>
    </edge>
    <edge id=":8108065260_3" function="internal">
        <lane id=":8108065260_3_0" index="0" allow="pedestrian delivery bicycle" speed="5.56" length="9.67" shape="563.11,686.95 565.66,689.42 567.79,691.17 569.52,692.20 570.83,692.51"/>
    </edge>
    <edge id=":8108065260_4" function="internal">
        <lane id=":8108065260_4_0" index="0" allow="pedestrian delivery bicycle" speed="5.56" length="15.41" shape="563.11,686.95 566.06,690.80 566.43,693.63 564.23,695.44 559.44,696.23"/>
    </edge>
    <edge id=":8108065260_5" function="internal">
        <lane id=":8108065260_5_0" index="0" allow="pedestrian delivery bicycle" speed="3.65" length="4.67" shape="563.11,686.95 563.38,688.36 563.08,689.21 562.23,689.48 560.82,689.18"/>
    </edge>
    <edge id=":8108065260_6" function="internal">
        <lane id=":8108065260_6_0" index="0" allow="pedestrian delivery bicycle" speed="4.66" length="6.40" shape="559.29,693.04 561.28,692.71 562.20,691.95 562.04,690.78 560.82,689.18"/>