<routes>
    <vTypeDistribution id="mixed_traffic">
        <vType id="car" vClass="passenger" color="1,1,0" probability="0.60"/>
        <vType id="motorcycle" vClass="motorcycle" guiShape="motorcycle" speedFactor="1.2" color="1,0,0" probability="0.30"/>
        <vType id="truck" vClass="truck" guiShape="truck" length="7.5" color="0,1,1" probability="0.05"/>
        <vType id="bus" vClass="bus" guiShape="bus" length="12" color="1,0,1" probability="0.05"/>
    </vTypeDistribution>

    <include href="trips.trips.xml"/>
</routes>