<?xml version="1.0" encoding="UTF-8"?>

<!-- generated on 2025-09-25 16:45:06 by Eclipse SUMO netconvert Version 1.24.0
<netconvertConfiguration xmlns:xsi="http://www.w3.org/2001/XMLSchema-instance" xsi:noNamespaceSchemaLocation="http://sumo.dlr.de/xsd/netconvertConfiguration.xsd">

    <input>
        <osm-files value="osm files\map.osm"/>
    </input>

    <output>
        <output-file value="bhuvaneshwar.net.xml"/>
    </output>

    <projection>
        <proj.utm value="true"/>
    </projection>

</netconvertConfiguration>
-->

<net version="1.20" junctionCornerDetail="5" limitTurnSpeed="5.50" xmlns:xsi="http://www.w3.org/2001/XMLSchema-instance" xsi:noNamespaceSchemaLocation="http://sumo.dlr.de/xsd/net_file.xsd">

    <location netOffset="-375206.39,-2237549.05" convBoundary="0.00,0.00,4452.72,3976.01" origBoundary="85.805314,20.231497,85.847765,20.267686" projParameter="+proj=utm +zone=45 +ellps=WGS84 +datum=WGS84 +units=m +no_defs"/>

    <type id="highway.footway" priority="1" numLanes="1" speed="2.78" allow="pedestrian" oneway="1" width="2.00"/>
    <type id="highway.living_street" priority="2" numLanes="1" speed="2.78" disallow="tram rail_urban rail rail_electric rail_fast ship container cable_car subway aircraft wheelchair scooter drone" oneway="0"/>
    <type id="highway.primary" priority="12" numLanes="2" speed="27.78" disallow="tram rail_urban rail rail_electric rail_fast ship container cable_car subway aircraft wheelchair scooter drone" oneway="0"/>
    <type id="highway.primary_link" priority="7" numLanes="1" speed="22.22" disallow="tram rail_urban rail rail_electric rail_fast ship container cable_car subway aircraft wheelchair scooter drone" oneway="0"/>
    <type id="highway.residential" priority="3" numLanes="1" speed="13.89" disallow="tram rail_urban rail rail_electric rail_fast ship container cable_car subway aircraft wheelchair scooter drone" oneway="0"/>
    <type id="highway.service" priority="1" numLanes="1" speed="5.56" allow="pedestrian delivery bicycle" oneway="0"/>
    <type id="highway.tertiary" priority="10" numLanes="1" speed="22.22" disallow="tram rail_urban rail rail_electric rail_fast ship container cable_car subway aircraft wheelchair scooter drone" oneway="0"/>
    <type id="railway.rail" priority="20" numLanes="1" speed="44.44" allow="rail" oneway="1"/>

    <edge id=":10091564873_0" function="internal">
        <lane id=":10091564873_0_0" index="0" disallow="tram rail_urban rail rail_electric rail_fast ship container cable_car subway aircraft wheelchair scooter drone" speed="6.01" length="7.95" shape="3768.01,2971.55 3767.36,2970.17 3767.63,2968.64 3768.82,2966.95 3770.93,2965.11"/>
    </edge>
    <edge id=":10091564873_1" function="internal">
        <lane id=":10091564873_1_0" index="0" disallow="tram rail_urban rail rail_electric rail_fast ship container cable_car subway aircraft wheelchair scooter drone" speed="3.65" length="4.67" shape="3768.01,2971.55 3767.84,2970.12 3768.18,2969.30 3769.05,2969.08 3770.44,2969.47"/>
    </edge>
    <edge id=":10091564873_2" function="internal">
        <lane id=":10091564873_2_0" index="0" disallow="tram rail_urban rail rail_electric rail_fast ship container cable_car subway aircraft wheelchair scooter drone" speed="27.78" length="9.41" shape="3761.47,2968.17 3769.02,2962.55"/>
        <lane id=":10091564873_2_1" index="1" disallow="tram rail_urban rail rail_electric rail_fast ship container cable_car subway aircraft wheelchair scooter drone" speed="27.78" length="9.41" shape="3763.38,2970.74 3770.93,2965.11"/>
    </edge>
    <edge id=":10091564873_4" function="internal">
        <lane id=":10091564873_4_0" index="0" disallow="tram rail_urban rail rail_electric rail_fast ship container cable_car subway aircraft wheelchair scooter drone" speed="6.26" length="7.87" shape="3763.38,2970.74 3765.69,2969.27 3767.63,2968.57 3769.22,2968.64 3770.44,2969.47"/>
    </edge>
    <edge id=":10091564874_0" function="internal">
        <lane id=":10091564874_0_0" index="0" disallow="tram rail_urban rail rail_electric rail_fast ship container cable_car subway aircraft wheelchair scooter drone" speed="13.89" length="14.40" shape="3786.68,2980.09 3775.45,2989.11"/>
    </edge>
    <edge id=":10091564874_1" function="internal">
        <lane id=":10091564874_1_0" index="0" disallow="tram rail_urban rail rail_electric rail_fast ship container cable_car subway aircraft wheelchair scooter drone" speed="8.10" length="4.02" shape="3786.68,2980.09 3783.37,2982.05 3783.20,2982.07"/>
    </edge>
    <edge id=":10091564874_2" function="internal">
        <lane id=":10091564874_2_0" index="0" disallow="tram rail_urban rail rail_electric rail_fast ship container cable_car subway aircraft wheelchair scooter drone" speed="3.65" length="1.44" shape="3786.68,2980.09 3785.25,2980.22"/>
    </edge>
    <edge id=":10091564874_9" function="internal">
        <lane id=":10091564874_9_0" index="0" disallow="tram rail_urban rail rail_electric rail_fast ship container cable_car subway aircraft wheelchair scooter drone" speed="8.10" length="10.22" shape="3783.20,2982.07 3780.18,2982.48 3777.12,2981.39 3774.18,2978.79"/>
    </edge>
    <edge id=":10091564874_10" function="internal">
        <lane id=":10091564874_10_0" index="0" disallow="tram rail_urban rail rail_electric rail_fast ship container cable_car subway aircraft wheelchair scooter drone" speed="3.65" length="3.23" shape="3785.25,2980.22 3784.43,2979.85 3784.24,2978.97 3784.68,2977.60"/>
    </edge>
    <edge id=":10091564874_3" function="internal">
        <lane id=":10091564874_3_0" index="0" disallow="tram rail_urban rail rail_electric rail_fast ship container cable_car subway aircraft wheelchair scooter drone" speed="6.63" length="9.19" shape="3776.62,2976.71 3778.52,2978.40 3780.50,2979.12 3782.55,2978.85 3784.68,2977.60"/>
    </edge>
    <edge id=":10091564874_4" function="internal">
        <lane id=":10091564874_4_0" index="0" disallow="tram rail_urban rail rail_electric rail_fast ship container cable_car subway aircraft wheelchair scooter drone" speed="7.95" length="14.31" shape="3776.62,2976.71 3778.72,2980.04 3779.23,2983.21 3778.14,2986.24 3775.45,2989.11"/>
    </edge>
    <edge id=":10091564874_5" function="internal">
        <lane id=":10091564874_5_0" index="0" disallow="tram rail_urban rail rail_electric rail_fast ship container cable_car subway aircraft wheelchair scooter drone" speed="3.65" length="4.67" shape="3776.62,2976.71 3776.79,2978.14 3776.44,2978.96 3775.57,2979.18 3774.18,2978.79"/>
    </edge>
    <edge id=":10091564874_6" function="internal">
        <lane id=":10091564874_6_0" index="0" disallow="tram rail_urban rail rail_electric rail_fast ship container cable_car subway aircraft wheelchair scooter drone" speed="6.44" length="9.03" shape="3773.45,2986.62 3775.15,2984.80 3775.84,2982.89 3775.51,2980.89 3774.18,2978.79"/>
    </edge>
    <edge id=":10091564874_7" function="internal">
        <lane id=":10091564874_7_0" index="0" disallow="tram rail_urban rail rail_electric rail_fast ship container cable_car subway aircraft wheelchair scooter drone" speed="13.89" length="14.40" shape="3773.45,2986.62 3784.68,2977.60"/>
    </edge>
    <edge id=":10091564874_8" function="internal">
        <lane id=":10091564874_8_0" index="0" disallow="tram rail_urban rail rail_electric rail_fast ship container cable_car subway aircraft wheelchair scooter drone" speed="3.65" length="1.44" shape="3773.45,2986.62 3774.89,2986.49"/>
    </edge>
    <edge id=":10091564874_11" function="internal">
        <lane id=":10091564874_11_0" index="0" disallow="tram rail_urban rail rail_electric rail_fast ship container cable_car subway aircraft wheelchair scooter drone" speed="3.65" length="3.23" shape="3774.89,2986.49 3775.70,2986.87 3775.89,2987.74 3775.45,2989.11"/>
    </edge>
    <edge id=":10779362168_0" function="internal">
        <lane id=":10779362168_0_0" index="0" disallow="tram rail_urban rail rail_electric rail_fast ship container cable_car subway aircraft wheelchair scooter drone" speed="5.28" length="5.60" shape="3878.09,3028.05 3879.15,3028.89 3880.33,3029.12 3881.62,3028.74 3883.02,3027.75"/>
    </edge>
    <edge id=":10779362168_1" function="internal">
        <lane id=":10779362168_1_0" index="0" disallow="tram rail_urban rail rail_electric rail_fast ship container cable_car subway aircraft wheelchair scooter drone" speed="27.78" length="8.78" shape="3878.09,3028.05 3884.03,3034.42"/>
        <lane id=":10779362168_1_1" index="1" disallow="tram rail_urban rail rail_electric rail_fast ship container cable_car subway aircraft wheelchair scooter drone" speed="27.78" length="8.78" shape="3875.69,3030.17 3881.73,3036.64"/>
    </edge>
    <edge id=":10779362169_0" function="internal">
        <lane id=":10779362169_0_0" index="0" disallow="tram rail_urban rail rail_electric rail_fast ship container cable_car subway aircraft wheelchair scooter drone" speed="27.78" length="8.66" shape="3889.76,3029.28 3884.01,3022.86"/>
        <lane id=":10779362169_0_1" index="1" disallow="tram rail_urban rail rail_electric rail_fast ship container cable_car subway aircraft wheelchair scooter drone" speed="27.78" length="8.66" shape="3892.16,3027.17 3886.36,3020.68"/>
    </edge>
    <edge id=":10779362169_2" function="internal">
        <lane id=":10779362169_2_0" index="0" disallow="tram rail_urban rail rail_electric rail_fast ship container cable_car subway aircraft wheelchair scooter drone" speed="6.49" length="9.03" shape="3892.16,3027.17 3890.81,3025.10 3890.45,3023.09 3891.08,3021.15 3892.71,3019.29"/>
    </edge>
    <edge id=":10779362169_3" function="internal">
        <lane id=":10779362169_3_0" index="0" disallow="tram rail_urban rail rail_electric rail_fast ship container cable_car subway aircraft wheelchair scooter drone" speed="5.22" length="5.52" shape="3883.17,3027.62 3884.30,3026.36 3884.82,3025.15 3884.73,3023.98 3884.01,3022.86"/>
    </edge>
    <edge id=":10779362169_4" function="internal">
        <lane id=":10779362169_4_0" index="0" disallow="tram rail_urban rail rail_electric rail_fast ship container cable_car subway aircraft wheelchair scooter drone" speed="22.22" length="12.67" shape="3883.17,3027.62 3892.71,3019.29"/>
    </edge>
    <edge id=":10779362170_0" function="internal">
        <lane id=":10779362170_0_0" index="0" disallow="tram rail_urban rail rail_electric rail_fast ship container cable_car subway aircraft wheelchair scooter drone" speed="6.10" length="7.82" shape="3957.38,2967.63 3956.81,2966.30 3957.09,2964.78 3958.24,2963.07 3960.25,2961.17"/>
    </edge>
    <edge id=":10779362170_1" function="internal">
        <lane id=":10779362170_1_0" index="0" disallow="tram rail_urban rail rail_electric rail_fast ship container cable_car subway aircraft wheelchair scooter drone" speed="3.65" length="4.67" shape="3957.38,2967.63 3957.25,2966.19 3957.61,2965.38 3958.49,2965.18 3959.86,2965.61"/>
    </edge>
    <edge id=":10779362170_2" function="internal">
        <lane id=":10779362170_2_0" index="0" disallow="tram rail_urban rail rail_electric rail_fast ship container cable_car subway aircraft wheelchair scooter drone" speed="22.22" length="9.45" shape="3953.01,2967.24 3960.25,2961.17"/>
    </edge>
    <edge id=":10779362170_3" function="internal">
        <lane id=":10779362170_3_0" index="0" disallow="tram rail_urban rail rail_electric rail_fast ship container cable_car subway aircraft wheelchair scooter drone" speed="6.05" length="7.84" shape="3953.01,2967.24 3955.24,2965.59 3957.13,2964.76 3958.67,2964.77 3959.86,2965.61"/>
    </edge>
    <edge id=":11012185762_0" function="internal">
        <lane id=":11012185762_0_0" index="0" disallow="tram rail_urban rail rail_electric rail_fast ship container cable_car subway aircraft wheelchair scooter drone" speed="27.78" length="9.40" shape="3827.40,2960.25 3821.06,2953.31"/>
        <lane id=":11012185762_0_1" index="1" disallow="tram rail_urban rail rail_electric rail_fast ship container cable_car subway aircraft wheelchair scooter drone" speed="27.78" length="9.40" shape="3829.76,2958.10 3823.42,2951.15"/>
    </edge>
    <edge id=":11012185762_2" function="internal">
        <lane id=":11012185762_2_0" index="0" disallow="tram rail_urban rail rail_electric rail_fast ship container cable_car subway aircraft wheelchair scooter drone" speed="6.06" length="7.80" shape="3829.76,2958.10 3828.04,2955.92 3827.16,2954.06 3827.10,2952.53 3827.88,2951.32"/>
    </edge>
    <edge id=":11012185762_3" function="internal">
        <lane id=":11012185762_3_0" index="0" disallow="tram rail_urban rail rail_electric rail_fast ship container cable_car subway aircraft wheelchair scooter drone" speed="6.13" length="7.78" shape="3830.00,2953.72 3828.71,2954.33 3827.18,2954.11 3825.42,2953.05 3823.42,2951.15"/>
    </edge>
    <edge id=":11012185762_4" function="internal">
        <lane id=":11012185762_4_0" index="0" disallow="tram rail_urban rail rail_electric rail_fast ship container cable_car subway aircraft wheelchair scooter drone" speed="3.65" length="4.67" shape="3830.00,2953.72 3828.57,2953.91 3827.74,2953.58 3827.51,2952.71 3827.88,2951.32"/>
    </edge>
    <edge id=":11012185763_0" function="internal">
        <lane id=":11012185763_0_0" index="0" disallow="tram rail_urban rail rail_electric rail_fast ship container cable_car subway aircraft wheelchair scooter drone" speed="8.34" length="0.22" shape="3921.03,2873.45 3920.97,2873.49 3920.94,2873.52 3920.90,2873.54 3920.85,2873.59"/>
    </edge>
    <edge id=":11012185763_1" function="internal">
        <lane id=":11012185763_1_0" index="0" disallow="tram rail_urban rail rail_electric rail_fast ship container cable_car subway aircraft wheelchair scooter drone" speed="8.34" length="0.66" shape="3918.74,2871.19 3918.88,2871.06 3918.99,2870.97 3919.10,2870.89 3919.26,2870.79"/>
    </edge>
    <edge id=":12260738176_0" function="internal">
        <lane id=":12260738176_0_0" index="0" disallow="tram rail_urban rail rail_electric rail_fast ship container cable_car subway aircraft wheelchair scooter drone" speed="13.89" length="5.13" shape="3655.70,2761.48 3651.67,2764.65"/>
    </edge>
    <edge id=":12260738176_1" function="internal">
        <lane id=":12260738176_1_0" index="0" disallow="tram rail_urban rail rail_electric rail_fast ship container cable_car subway aircraft wheelchair scooter drone" speed="13.89" length="5.13" shape="3649.69,2762.14 3653.72,2758.97"/>
    </edge>
    <edge id=":12260738178_0" function="internal">
        <lane id=":12260738178_0_0" index="0" disallow="tram rail_urban rail rail_electric rail_fast ship container cable_car subway aircraft wheelchair scooter drone" speed="13.89" length="5.01" shape="3616.91,2681.52 3612.65,2684.15"/>
    </edge>
    <edge id=":12260738178_1" function="internal">
        <lane id=":12260738178_1_0" index="0" disallow="tram rail_urban rail rail_electric rail_fast ship container cable_car subway aircraft wheelchair scooter drone" speed="13.89" length="5.01" shape="3610.97,2681.43 3615.22,2678.80"/>
    </edge>
    <edge id=":12882869350_0" function="internal">
        <lane id=":12882869350_0_0" index="0" disallow="tram rail_urban rail rail_electric rail_fast ship container cable_car subway aircraft wheelchair scooter drone" speed="27.78" length="9.40" shape="3747.44,2873.17 3741.50,2865.88"/>
        <lane id=":12882869350_0_1" index="1" disallow="tram rail_urban rail rail_electric rail_fast ship container cable_car subway aircraft wheelchair scooter drone" speed="27.78" length="9.40" shape="3749.92,2871.14 3743.98,2863.86"/>
    </edge>
    <edge id=":12882869350_2" function="internal">
        <lane id=":12882869350_2_0" index="0" allow="pedestrian delivery bicycle" speed="6.18" length="7.81" shape="3749.92,2871.14 3748.34,2868.90 3747.56,2866.99 3747.56,2865.43 3748.35,2864.22"/>
    </edge>
    <edge id=":12882869350_3" function="internal">
        <lane id=":12882869350_3_0" index="0" allow="pedestrian delivery bicycle" speed="6.04" length="7.86" shape="3750.46,2866.63 3749.13,2867.26 3747.61,2867.01 3745.89,2865.88 3743.98,2863.86"/>
    </edge>
    <edge id=":12882869350_4" function="internal">
        <lane id=":12882869350_4_0" index="0" allow="pedestrian delivery bicycle" speed="3.65" length="4.67" shape="3750.46,2866.63 3749.03,2866.82 3748.20,2866.48 3747.98,2865.61 3748.35,2864.22"/>
    </edge>
    <edge id=":12882869354_0" function="internal">
        <lane id=":12882869354_0_0" index="0" allow="pedestrian delivery bicycle" speed="5.56" length="1.03" shape="3761.41,2852.03 3761.47,2852.33 3761.50,2852.54 3761.51,2852.75 3761.51,2853.05"/>
    </edge>
    <edge id=":12882869354_1" function="internal">
        <lane id=":12882869354_1_0" index="0" allow="pedestrian delivery bicycle" speed="5.56" length="0.34" shape="3758.31,2853.03 3758.31,2852.93 3758.31,2852.86 3758.30,2852.79 3758.28,2852.69"/>
    </edge>
    <edge id=":12882869355_0" function="internal">
        <lane id=":12882869355_0_0" index="0" allow="pedestrian delivery bicycle" speed="5.56" length="0.49" shape="3749.78,2840.92 3749.65,2840.85 3749.56,2840.81 3749.46,2840.78 3749.32,2840.75"/>
    </edge>
    <edge id=":12882869355_1" function="internal">
        <lane id=":12882869355_1_0" index="0" allow="pedestrian delivery bicycle" speed="5.56" length="1.47" shape="3749.96,2837.62 3750.39,2837.71 3750.68,2837.79 3750.95,2837.92 3751.33,2838.13"/>
    </edge>
    <edge id=":12882869359_0" function="internal">
        <lane id=":12882869359_0_0" index="0" disallow="tram rail_urban rail rail_electric rail_fast ship container cable_car subway aircraft wheelchair scooter drone" speed="27.78" length="9.41" shape="3732.96,2854.24 3727.49,2846.59"/>
        <lane id=":12882869359_0_1" index="1" disallow="tram rail_urban rail rail_electric rail_fast ship container cable_car subway aircraft wheelchair scooter drone" speed="27.78" length="9.41" shape="3735.57,2852.38 3730.09,2844.73"/>
    </edge>
    <edge id=":12882869359_2" function="internal">
        <lane id=":12882869359_2_0" index="0" allow="pedestrian delivery bicycle" speed="6.22" length="7.84" shape="3735.57,2852.38 3734.14,2850.04 3733.47,2848.08 3733.57,2846.51 3734.43,2845.33"/>
    </edge>
    <edge id=":12882869359_3" function="internal">
        <lane id=":12882869359_3_0" index="0" allow="pedestrian delivery bicycle" speed="6.03" length="7.90" shape="3736.43,2847.83 3735.05,2848.42 3733.53,2848.10 3731.88,2846.87 3730.09,2844.73"/>
    </edge>
    <edge id=":12882869359_4" function="internal">
        <lane id=":12882869359_4_0" index="0" allow="pedestrian delivery bicycle" speed="3.65" length="4.67" shape="3736.43,2847.83 3734.99,2847.95 3734.18,2847.58 3734.00,2846.70 3734.43,2845.33"/>
    </edge>
    <edge id=":293452070_0" function="internal">
        <lane id=":293452070_0_0" index="0" disallow="tram rail_urban rail rail_electric rail_fast ship container cable_car subway aircraft wheelchair scooter drone" speed="6.08" length="7.73" shape="3910.71,2861.34 3911.80,2863.16 3912.04,2864.89 3911.45,2866.53 3910.01,2868.09"/>
    </edge>
    <edge id=":293452070_1" function="internal">
        <lane id=":293452070_1_0" index="0" disallow="tram rail_urban rail rail_electric rail_fast ship container cable_car subway aircraft wheelchair scooter drone" speed="3.90" length="2.58" shape="3907.99,2865.61 3908.47,2865.09 3908.67,2864.54 3908.59,2863.96 3908.22,2863.36"/>
    </edge>
    <edge id=":293460075_0" function="internal">
        <lane id=":293460075_0_0" index="0" disallow="tram rail_urban rail rail_electric rail_fast ship container cable_car subway aircraft wheelchair scooter drone" speed="8.34" length="15.04" shape="3954.50,2850.04 3951.63,2852.47 3948.68,2854.81 3945.66,2857.05 3942.56,2859.18"/>
    </edge>
    <edge id=":293460075_1" function="internal">
        <lane id=":293460075_1_0" index="0" disallow="tram rail_urban rail rail_electric rail_fast ship container cable_car subway aircraft wheelchair scooter drone" speed="7.81" length="14.65" shape="3954.50,2850.04 3951.07,2852.26 3947.87,2852.75 3944.88,2851.49 3942.10,2848.50"/>
    </edge>
    <edge id=":293460075_2" function="internal">
        <lane id=":293460075_2_0" index="0" disallow="tram rail_urban rail rail_electric rail_fast ship container cable_car subway aircraft wheelchair scooter drone" speed="3.65" length="1.44" shape="3954.50,2850.04 3953.07,2850.23"/>
    </edge>
    <edge id=":293460075_9" function="internal">
        <lane id=":293460075_9_0" index="0" disallow="tram rail_urban rail rail_electric rail_fast ship container cable_car subway aircraft wheelchair scooter drone" speed="3.65" length="3.23" shape="3953.07,2850.23 3952.24,2849.89 3952.01,2849.03 3952.39,2847.63"/>
    </edge>
    <edge id=":293460075_3" function="internal">
        <lane id=":293460075_3_0" index="0" disallow="tram rail_urban rail rail_electric rail_fast ship container cable_car subway aircraft wheelchair scooter drone" speed="6.27" length="9.04" shape="3944.74,2846.68 3946.45,2848.53 3948.30,2849.30 3950.27,2849.01 3952.39,2847.63"/>
    </edge>
    <edge id=":293460075_4" function="internal">
        <lane id=":293460075_4_0" index="0" disallow="tram rail_urban rail rail_electric rail_fast ship container cable_car subway aircraft wheelchair scooter drone" speed="8.04" length="2.54" shape="3944.74,2846.68 3945.88,2848.95"/>
    </edge>
    <edge id=":293460075_5" function="internal">
        <lane id=":293460075_5_0" index="0" disallow="tram rail_urban rail rail_electric rail_fast ship container cable_car subway aircraft wheelchair scooter drone" speed="3.65" length="1.30" shape="3944.74,2846.68 3944.76,2847.98"/>
    </edge>
    <edge id=":293460075_10" function="internal">
        <lane id=":293460075_10_0" index="0" disallow="tram rail_urban rail rail_electric rail_fast ship container cable_car subway aircraft wheelchair scooter drone" speed="8.04" length="11.99" shape="3945.88,2848.95 3946.56,2850.31 3946.81,2853.60 3945.48,2856.56 3942.56,2859.18"/>
    </edge>
    <edge id=":293460075_11" function="internal">
        <lane id=":293460075_11_0" index="0" disallow="tram rail_urban rail rail_electric rail_fast ship container cable_car subway aircraft wheelchair scooter drone" speed="3.65" length="3.37" shape="3944.76,2847.98 3944.76,2848.12 3944.33,2848.91 3943.44,2849.03 3942.10,2848.50"/>
    </edge>
    <edge id=":293460075_6" function="internal">
        <lane id=":293460075_6_0" index="0" disallow="tram rail_urban rail rail_electric rail_fast ship container cable_car subway aircraft wheelchair scooter drone" speed="6.55" length="9.30" shape="3940.80,2856.52 3942.64,2854.85 3943.47,2852.96 3943.29,2850.84 3942.10,2848.50"/>
    </edge>
    <edge id=":293460075_7" function="internal">
        <lane id=":293460075_7_0" index="0" disallow="tram rail_urban rail rail_electric rail_fast ship container cable_car subway aircraft wheelchair scooter drone" speed="8.34" length="14.62" shape="3940.80,2856.52 3943.84,2854.43 3946.74,2852.27 3949.58,2850.02 3952.39,2847.63"/>
    </edge>
    <edge id=":293460075_8" function="internal">
        <lane id=":293460075_8_0" index="0" disallow="tram rail_urban rail rail_electric rail_fast ship container cable_car subway aircraft wheelchair scooter drone" speed="2.78" length="4.67" shape="3940.80,2856.52 3942.24,2856.52 3943.01,2856.97 3943.12,2857.85 3942.56,2859.18"/>
    </edge>
    <edge id=":293460124_0" function="internal">
        <lane id=":293460124_0_0" index="0" disallow="tram rail_urban rail rail_electric rail_fast ship container cable_car subway aircraft wheelchair scooter drone" speed="3.65" length="4.67" shape="3925.19,2518.80 3925.99,2517.60 3926.79,2517.20 3927.59,2517.59 3928.39,2518.79"/>
    </edge>
    <edge id=":293460131_0" function="internal">
        <lane id=":293460131_0_0" index="0" disallow="tram rail_urban rail rail_electric rail_fast ship container cable_car subway aircraft wheelchair scooter drone" speed="27.78" length="0.43" shape="3722.58,2839.73 3722.47,2839.58 3722.40,2839.47 3722.33,2839.36 3722.24,2839.19"/>
        <lane id=":293460131_0_1" index="1" disallow="tram rail_urban rail rail_electric rail_fast ship container cable_car subway aircraft wheelchair scooter drone" speed="27.78" length="0.43" shape="3725.18,2837.87 3725.14,2837.82 3725.12,2837.78 3725.10,2837.74 3725.07,2837.69"/>
    </edge>
    <edge id=":293460148_0" function="internal">
        <lane id=":293460148_0_0" index="0" disallow="tram rail_urban rail rail_electric rail_fast ship container cable_car subway aircraft wheelchair scooter drone" speed="6.93" length="9.53" shape="3921.83,2772.76 3920.99,2770.19 3919.61,2768.43 3917.70,2767.46 3915.26,2767.29"/>
    </edge>
    <edge id=":293460148_1" function="internal">
        <lane id=":293460148_1_0" index="0" disallow="tram rail_urban rail rail_electric rail_fast ship container cable_car subway aircraft wheelchair scooter drone" speed="13.89" length="15.47" shape="3921.83,2772.76 3921.22,2768.99 3920.81,2765.10 3920.61,2761.19 3920.63,2757.37"/>
    </edge>
    <edge id=":293460148_2" function="internal">
        <lane id=":293460148_2_0" index="0" disallow="tram rail_urban rail rail_electric rail_fast ship container cable_car subway aircraft wheelchair scooter drone" speed="7.90" length="14.69" shape="3921.83,2772.76 3921.65,2768.74 3922.85,2765.72 3925.45,2763.70 3929.44,2762.67"/>
    </edge>
    <edge id=":293460148_3" function="internal">
        <lane id=":293460148_3_0" index="0" disallow="tram rail_urban rail rail_electric rail_fast ship container cable_car subway aircraft wheelchair scooter drone" speed="3.65" length="4.67" shape="3921.83,2772.76 3922.39,2771.43 3923.10,2770.88 3923.96,2771.12 3924.97,2772.14"/>
    </edge>
    <edge id=":293460148_4" function="internal">
        <lane id=":293460148_4_0" index="0" disallow="tram rail_urban rail rail_electric rail_fast ship container cable_car subway aircraft wheelchair scooter drone" speed="6.39" length="9.22" shape="3929.80,2765.85 3927.27,2766.49 3925.63,2767.76 3924.86,2769.64 3924.97,2772.14"/>
    </edge>
    <edge id=":293460148_5" function="internal">
        <lane id=":293460148_5_0" index="0" disallow="tram rail_urban rail rail_electric rail_fast ship container cable_car subway aircraft wheelchair scooter drone" speed="13.89" length="14.61" shape="3929.80,2765.85 3915.26,2767.29"/>
    </edge>
    <edge id=":293460148_6" function="internal">
        <lane id=":293460148_6_0" index="0" disallow="tram rail_urban rail rail_electric rail_fast ship container cable_car subway aircraft wheelchair scooter drone" speed="7.76" length="4.30" shape="3929.80,2765.85 3925.67,2765.72 3925.52,2765.65"/>
    </edge>
    <edge id=":293460148_7" function="internal">
        <lane id=":293460148_7_0" index="0" disallow="tram rail_urban rail rail_electric rail_fast ship container cable_car subway aircraft wheelchair scooter drone" speed="3.65" length="1.44" shape="3929.80,2765.85 3928.52,2765.19"/>
    </edge>
    <edge id=":293460148_16" function="internal">
        <lane id=":293460148_16_0" index="0" disallow="tram rail_urban rail rail_electric rail_fast ship container cable_car subway aircraft wheelchair scooter drone" speed="7.76" length="10.47" shape="3925.52,2765.65 3922.76,2764.26 3921.08,2761.48 3920.63,2757.37"/>
    </edge>
    <edge id=":293460148_17" function="internal">
        <lane id=":293460148_17_0" index="0" disallow="tram rail_urban rail rail_electric rail_fast ship container cable_car subway aircraft wheelchair scooter drone" speed="3.65" length="3.23" shape="3928.52,2765.19 3928.03,2764.44 3928.34,2763.60 3929.44,2762.67"/>
    </edge>
    <edge id=":293460148_8" function="internal">
        <lane id=":293460148_8_0" index="0" disallow="tram rail_urban rail rail_electric rail_fast ship container cable_car subway aircraft wheelchair scooter drone" speed="6.22" length="9.05" shape="3923.83,2757.47 3924.10,2759.99 3925.13,2761.70 3926.91,2762.59 3929.44,2762.67"/>
    </edge>
    <edge id=":293460148_9" function="internal">
        <lane id=":293460148_9_0" index="0" disallow="tram rail_urban rail rail_electric rail_fast ship container cable_car subway aircraft wheelchair scooter drone" speed="13.89" length="14.75" shape="3923.83,2757.47 3923.80,2761.18 3923.98,2764.84 3924.37,2768.49 3924.97,2772.14"/>
    </edge>
    <edge id=":293460148_10" function="internal">
        <lane id=":293460148_10_0" index="0" disallow="tram rail_urban rail rail_electric rail_fast ship container cable_car subway aircraft wheelchair scooter drone" speed="8.45" length="14.49" shape="3923.83,2757.47 3923.18,2761.51 3921.53,2764.49 3918.89,2766.41 3915.26,2767.29"/>
    </edge>
    <edge id=":293460148_11" function="internal">
        <lane id=":293460148_11_0" index="0" disallow="tram rail_urban rail rail_electric rail_fast ship container cable_car subway aircraft wheelchair scooter drone" speed="3.65" length="4.67" shape="3923.83,2757.47 3922.99,2758.65 3922.17,2759.02 3921.39,2758.59 3920.63,2757.37"/>
    </edge>
    <edge id=":293460148_12" function="internal">
        <lane id=":293460148_12_0" index="0" disallow="tram rail_urban rail rail_electric rail_fast ship container cable_car subway aircraft wheelchair scooter drone" speed="7.03" length="9.76" shape="3914.99,2764.10 3917.38,2763.51 3919.11,2762.19 3920.20,2760.14 3920.63,2757.37"/>
    </edge>
    <edge id=":293460148_13" function="internal">
        <lane id=":293460148_13_0" index="0" disallow="tram rail_urban rail rail_electric rail_fast ship container cable_car subway aircraft wheelchair scooter drone" speed="13.89" length="14.52" shape="3914.99,2764.10 3929.44,2762.67"/>
    </edge>
    <edge id=":293460148_14" function="internal">