<edges>
    <edge id="e1" from="n1" to="n2" numLanes="1" speed="13.9"/>
    <edge id="e2" from="n2" to="n3" numLanes="1" speed="13.9"/>
</edges>
