<?xml version="1.0" encoding="UTF-8"?>

<!-- generated on 2025-09-24 18:01:32 by Eclipse SUMO netconvert Version 1.24.0
<netconvertConfiguration xmlns:xsi="http://www.w3.org/2001/XMLSchema-instance" xsi:noNamespaceSchemaLocation="http://sumo.dlr.de/xsd/netconvertConfiguration.xsd">

    <input>
        <node-files value="intersection.nod.xml"/>
        <edge-files value="intersection.edg.xml"/>
    </input>

    <output>
        <output-file value="intersection.net.xml"/>
    </output>

</netconvertConfiguration>
-->

<net version="1.20" junctionCornerDetail="5" limitTurnSpeed="5.50" xmlns:xsi="http://www.w3.org/2001/XMLSchema-instance" xsi:noNamespaceSchemaLocation="http://sumo.dlr.de/xsd/net_file.xsd">

    <location netOffset="500.00,500.00" convBoundary="0.00,0.00,1000.00,1000.00" origBoundary="-500.00,-500.00,500.00,500.00" projParameter="!"/>

    <edge id=":E1_0" function="internal">
        <lane id=":E1_0_0" index="0" speed="3.65" length="4.67" shape="1000.00,498.40 1001.20,499.20 1001.60,500.00 1001.20,500.80 1000.00,501.60"/>
    </edge>
    <edge id=":J1_0" function="internal">
        <lane id=":J1_0_0" index="0" speed="6.51" length="9.03" shape="495.20,510.40 494.85,507.95 493.80,506.20 492.05,505.15 489.60,504.80"/>
    </edge>
    <edge id=":J1_1" function="internal">
        <lane id=":J1_1_0" index="0" speed="13.90" length="20.80" shape="495.20,510.40 495.20,489.60"/>
        <lane id=":J1_1_1" index="1" speed="13.90" length="20.80" shape="498.40,510.40 498.40,489.60"/>
    </edge>
    <edge id=":J1_3" function="internal">
        <lane id=":J1_3_0" index="0" speed="9.26" length="5.01" shape="498.40,510.40 499.11,505.44"/>
    </edge>
    <edge id=":J1_4" function="internal">
        <lane id=":J1_4_0" index="0" speed="3.65" length="1.44" shape="498.40,510.40 499.20,509.20"/>
    </edge>
    <edge id=":J1_20" function="internal">
        <lane id=":J1_20_0" index="0" speed="9.26" length="14.34" shape="499.11,505.44 499.15,505.15 501.40,501.40 505.15,499.15 510.40,498.40"/>
    </edge>
    <edge id=":J1_21" function="internal">
        <lane id=":J1_21_0" index="0" speed="3.65" length="3.23" shape="499.20,509.20 500.00,508.80 500.80,509.20 501.60,510.40"/>
    </edge>
    <edge id=":J1_5" function="internal">
        <lane id=":J1_5_0" index="0" speed="6.51" length="9.03" shape="510.40,504.80 507.95,505.15 506.20,506.20 505.15,507.95 504.80,510.40"/>
    </edge>
    <edge id=":J1_6" function="internal">
        <lane id=":J1_6_0" index="0" speed="13.90" length="20.80" shape="510.40,504.80 489.60,504.80"/>
        <lane id=":J1_6_1" index="1" speed="13.90" length="20.80" shape="510.40,501.60 489.60,501.60"/>
    </edge>
    <edge id=":J1_8" function="internal">
        <lane id=":J1_8_0" index="0" speed="9.26" length="5.01" shape="510.40,501.60 505.44,500.89"/>
    </edge>
    <edge id=":J1_9" function="internal">
        <lane id=":J1_9_0" index="0" speed="3.65" length="1.44" shape="510.40,501.60 509.20,500.80"/>
    </edge>
    <edge id=":J1_22" function="internal">
        <lane id=":J1_22_0" index="0" speed="9.26" length="14.34" shape="505.44,500.89 505.15,500.85 501.40,498.60 499.15,494.85 498.40,489.60"/>
    </edge>
    <edge id=":J1_23" function="internal">
        <lane id=":J1_23_0" index="0" speed="3.65" length="3.23" shape="509.20,500.80 508.80,500.00 509.20,499.20 510.40,498.40"/>
    </edge>
    <edge id=":J1_10" function="internal">
        <lane id=":J1_10_0" index="0" speed="6.51" length="9.03" shape="504.80,489.60 505.15,492.05 506.20,493.80 507.95,494.85 510.40,495.20"/>
    </edge>
    <edge id=":J1_11" function="internal">
        <lane id=":J1_11_0" index="0" speed="13.90" length="20.80" shape="504.80,489.60 504.80,510.40"/>
        <lane id=":J1_11_1" index="1" speed="13.90" length="20.80" shape="501.60,489.60 501.60,510.40"/>
    </edge>
    <edge id=":J1_13" function="internal">
        <lane id=":J1_13_0" index="0" speed="9.26" length="5.01" shape="501.60,489.60 500.89,494.56"/>
    </edge>
    <edge id=":J1_14" function="internal">
        <lane id=":J1_14_0" index="0" speed="3.65" length="1.44" shape="501.60,489.60 500.80,490.80"/>
    </edge>
    <edge id=":J1_24" function="internal">
        <lane id=":J1_24_0" index="0" speed="9.26" length="14.34" shape="500.89,494.56 500.85,494.85 498.60,498.60 494.85,500.85 489.60,501.60"/>
    </edge>
    <edge id=":J1_25" function="internal">
        <lane id=":J1_25_0" index="0" speed="3.65" length="3.23" shape="500.80,490.80 500.00,491.20 499.20,490.80 498.40,489.60"/>
    </edge>
    <edge id=":J1_15" function="internal">
        <lane id=":J1_15_0" index="0" speed="6.51" length="9.03" shape="489.60,495.20 492.05,494.85 493.80,493.80 494.85,492.05 495.20,489.60"/>
    </edge>
    <edge id=":J1_16" function="internal">
        <lane id=":J1_16_0" index="0" speed="13.90" length="20.80" shape="489.60,495.20 510.40,495.20"/>
        <lane id=":J1_16_1" index="1" speed="13.90" length="20.80" shape="489.60,498.40 510.40,498.40"/>
    </edge>
    <edge id=":J1_18" function="internal">
        <lane id=":J1_18_0" index="0" speed="9.26" length="5.01" shape="489.60,498.40 494.56,499.11"/>
    </edge>
    <edge id=":J1_19" function="internal">
        <lane id=":J1_19_0" index="0" speed="3.65" length="1.44" shape="489.60,498.40 490.80,499.20"/>
    </edge>
    <edge id=":J1_26" function="internal">
        <lane id=":J1_26_0" index="0" speed="9.26" length="14.34" shape="494.56,499.11 494.85,499.15 498.60,501.40 500.85,505.15 501.60,510.40"/>
    </edge>
    <edge id=":J1_27" function="internal">
        <lane id=":J1_27_0" index="0" speed="3.65" length="3.23" shape="490.80,499.20 491.20,500.00 490.80,500.80 489.60,501.60"/>
    </edge>
    <edge id=":N1_0" function="internal">
        <lane id=":N1_0_0" index="0" speed="3.65" length="4.67" shape="501.60,1000.00 500.80,1001.20 500.00,1001.60 499.20,1001.20 498.40,1000.00"/>
    </edge>
    <edge id=":S1_0" function="internal">
        <lane id=":S1_0_0" index="0" speed="3.65" length="4.67" shape="498.40,0.00 499.20,-1.20 500.00,-1.60 500.80,-1.20 501.60,0.00"/>
    </edge>
    <edge id=":W1_0" function="internal">
        <lane id=":W1_0_0" index="0" speed="3.65" length="4.67" shape="0.00,501.60 -1.20,500.80 -1.60,500.00 -1.20,499.20 0.00,498.40"/>
    </edge>

    <edge id="E1_to_J1" from="E1" to="J1" priority="-1">
        <lane id="E1_to_J1_0" index="0" speed="13.90" length="489.60" shape="1000.00,504.80 510.40,504.80"/>
        <lane id="E1_to_J1_1" index="1" speed="13.90" length="489.60" shape="1000.00,501.60 510.40,501.60"/>
    </edge>
    <edge id="J1_to_E1" from="J1" to="E1" priority="-1">
        <lane id="J1_to_E1_0" index="0" speed="13.90" length="489.60" shape="510.40,495.20 1000.00,495.20"/>
        <lane id="J1_to_E1_1" index="1" speed="13.90" length="489.60" shape="510.40,498.40 1000.00,498.40"/>
    </edge>
    <edge id="J1_to_N1" from="J1" to="N1" priority="-1">
        <lane id="J1_to_N1_0" index="0" speed="13.90" length="489.60" shape="504.80,510.40 504.80,1000.00"/>
        <lane id="J1_to_N1_1" index="1" speed="13.90" length="489.60" shape="501.60,510.40 501.60,1000.00"/>
    </edge>
    <edge id="J1_to_S1" from="J1" to="S1" priority="-1">
        <lane id="J1_to_S1_0" index="0" speed="13.90" length="489.60" shape="495.20,489.60 495.20,0.00"/>
        <lane id="J1_to_S1_1" index="1" speed="13.90" length="489.60" shape="498.40,489.60 498.40,0.00"/>
    </edge>
    <edge id="J1_to_W1" from="J1" to="W1" priority="-1">
        <lane id="J1_to_W1_0" index="0" speed="13.90" length="489.60" shape="489.60,504.80 0.00,504.80"/>
        <lane id="J1_to_W1_1" index="1" speed="13.90" length="489.60" shape="489.60,501.60 0.00,501.60"/>
    </edge>
    <edge id="N1_to_J1" from="N1" to="J1" priority="-1">
        <lane id="N1_to_J1_0" index="0" speed="13.90" length="489.60" shape="495.20,1000.00 495.20,510.40"/>
        <lane id="N1_to_J1_1" index="1" speed="13.90" length="489.60" shape="498.40,1000.00 498.40,510.40"/>
    </edge>
    <edge id="S1_to_J1" from="S1" to="J1" priority="-1">
        <lane id="S1_to_J1_0" index="0" speed="13.90" length="489.60" shape="504.80,0.00 504.80,489.60"/>
        <lane id="S1_to_J1_1" index="1" speed="13.90" length="489.60" shape="501.60,0.00 501.60,489.60"/>
    </edge>
    <edge id="W1_to_J1" from="W1" to="J1" priority="-1">
        <lane id="W1_to_J1_0" index="0" speed="13.90" length="489.60" shape="0.00,495.20 489.60,495.20"/>
        <lane id="W1_to_J1_1" index="1" speed="13.90" length="489.60" shape="0.00,498.40 489.60,498.40"/>
    </edge>

    <tlLogic id="J1" type="static" programID="0" offset="0">
        <phase duration="42" state="GGGggrrrrrGGGggrrrrr"/>
        <phase duration="3"  state="yyyyyrrrrryyyyyrrrrr"/>
        <phase duration="42" state="rrrrrGGGggrrrrrGGGgg"/>
        <phase duration="3"  state="rrrrryyyyyrrrrryyyyy"/>
    </tlLogic>

    <junction id="E1" type="priority" x="1000.00" y="500.00" incLanes="J1_to_E1_0 J1_to_E1_1" intLanes=":E1_0_0" shape="1000.00,500.00 1000.00,493.60 1000.00,500.00">
        <request index="0" response="0" foes="0" cont="0"/>
    </junction>
    <junction id="J1" type="traffic_light" x="500.00" y="500.00" incLanes="N1_to_J1_0 N1_to_J1_1 E1_to_J1_0 E1_to_J1_1 S1_to_J1_0 S1_to_J1_1 W1_to_J1_0 W1_to_J1_1" intLanes=":J1_0_0 :J1_1_0 :J1_1_1 :J1_20_0 :J1_21_0 :J1_5_0 :J1_6_0 :J1_6_1 :J1_22_0 :J1_23_0 :J1_10_0 :J1_11_0 :J1_11_1 :J1_24_0 :J1_25_0 :J1_15_0 :J1_16_0 :J1_16_1 :J1_26_0 :J1_27_0" shape="493.60,510.40 506.40,510.40 506.84,508.18 507.40,507.40 508.18,506.84 509.18,506.51 510.40,506.40 510.40,493.60 508.18,493.16 507.40,492.60 506.84,491.82 506.51,490.82 506.40,489.60 493.60,489.60 493.16,491.82 492.60,492.60 491.82,493.16 490.82,493.49 489.60,493.60 489.60,506.40 491.82,506.84 492.60,507.40 493.16,508.18 493.49,509.18">
        <request index="0"  response="00000000000000000000" foes="00000000000011000000" cont="0"/>
        <request index="1"  response="01000000000100000000" foes="01111110000111000000" cont="0"/>
        <request index="2"  response="01000000000100000000" foes="01111110000111000000" cont="0"/>
        <request index="3"  response="01000001100100000000" foes="01110001101111000000" cont="1"/>
        <request index="4"  response="01000001100000000000" foes="01000001100000000000" cont="1"/>
        <request index="5"  response="00000001100000000000" foes="00000001100000000000" cont="0"/>
        <request index="6"  response="00000011100000001111" foes="11000011100000001111" cont="0"/>
        <request index="7"  response="00000011100000001111" foes="11000011100000001111" cont="0"/>
        <request index="8"  response="00110011100000001110" foes="00110111100000001110" cont="1"/>
        <request index="9"  response="00110000000000001000" foes="00110000000000001000" cont="1"/>
        <request index="10" response="00000000000000000000" foes="00110000000000000000" cont="0"/>
        <request index="11" response="01000000000100000000" foes="01110000000111111000" cont="0"/>
        <request index="12" response="01000000000100000000" foes="01110000000111111000" cont="0"/>
        <request index="13" response="01000000000100000110" foes="11110000000111000110" cont="1"/>
        <request index="14" response="00000000000100000110" foes="00000000000100000110" cont="1"/>
        <request index="15" response="00000000000000000110" foes="00000000000000000110" cont="0"/>
        <request index="16" response="00000011110000001110" foes="00000011111100001110" cont="0"/>
        <request index="17" response="00000011110000001110" foes="00000011111100001110" cont="0"/>
        <request index="18" response="00000011100011001110" foes="00000011100011011110" cont="1"/>
        <request index="19" response="00000010000011000000" foes="00000010000011000000" cont="1"/>
    </junction>
    <junction id="N1" type="priority" x="500.00" y="1000.00" incLanes="J1_to_N1_0 J1_to_N1_1" intLanes=":N1_0_0" shape="500.00,1000.00 506.40,1000.00 500.00,1000.00">
        <request index="0" response="0" foes="0" cont="0"/>
    </junction>
    <junction id="S1" type="priority" x="500.00" y="0.00" incLanes="J1_to_S1_0 J1_to_S1_1" intLanes=":S1_0_0" shape="500.00,0.00 493.60,0.00 500.00,0.00">
        <request index="0" response="0" foes="0" cont="0"/>
    </junction>
    <junction id="W1" type="priority" x="0.00" y="500.00" incLanes="J1_to_W1_0 J1_to_W1_1" intLanes=":W1_0_0" shape="0.00,500.00 0.00,506.40 0.00,500.00">
        <request index="0" response="0" foes="0" cont="0"/>
    </junction>

    <junction id=":J1_20_0" type="internal" x="499.11" y="505.44" incLanes=":J1_3_0 S1_to_J1_0 S1_to_J1_1" intLanes=":J1_6_0 :J1_6_1 :J1_8_0 :J1_9_0 :J1_10_0 :J1_11_0 :J1_11_1 :J1_16_0 :J1_16_1 :J1_18_0"/>
    <junction id=":J1_21_0" type="internal" x="499.20" y="509.20" incLanes=":J1_4_0 E1_to_J1_0 S1_to_J1_0 S1_to_J1_1 W1_to_J1_1" intLanes=":J1_5_0 :J1_11_0 :J1_11_1 :J1_18_0"/>
    <junction id=":J1_22_0" type="internal" x="505.44" y="500.89" incLanes=":J1_8_0 W1_to_J1_0 W1_to_J1_1" intLanes=":J1_1_0 :J1_1_1 :J1_3_0 :J1_11_0 :J1_11_1 :J1_13_0 :J1_14_0 :J1_15_0 :J1_16_0 :J1_16_1"/>
    <junction id=":J1_23_0" type="internal" x="509.20" y="500.80" incLanes=":J1_9_0 N1_to_J1_1 S1_to_J1_0 W1_to_J1_0 W1_to_J1_1" intLanes=":J1_3_0 :J1_10_0 :J1_16_0 :J1_16_1"/>
    <junction id=":J1_24_0" type="internal" x="500.89" y="494.56" incLanes=":J1_13_0 N1_to_J1_0 N1_to_J1_1" intLanes=":J1_0_0 :J1_1_0 :J1_1_1 :J1_6_0 :J1_6_1 :J1_8_0 :J1_16_0 :J1_16_1 :J1_18_0 :J1_19_0"/>
    <junction id=":J1_25_0" type="internal" x="500.80" y="490.80" incLanes=":J1_14_0 E1_to_J1_1 N1_to_J1_0 N1_to_J1_1 W1_to_J1_0" intLanes=":J1_1_0 :J1_1_1 :J1_8_0 :J1_15_0"/>
    <junction id=":J1_26_0" type="internal" x="494.56" y="499.11" incLanes=":J1_18_0 E1_to_J1_0 E1_to_J1_1" intLanes=":J1_1_0 :J1_1_1 :J1_3_0 :J1_4_0 :J1_5_0 :J1_6_0 :J1_6_1 :J1_11_0 :J1_11_1 :J1_13_0"/>
    <junction id=":J1_27_0" type="internal" x="490.80" y="499.20" incLanes=":J1_19_0 E1_to_J1_0 E1_to_J1_1 N1_to_J1_0 S1_to_J1_1" intLanes=":J1_0_0 :J1_6_0 :J1_6_1 :J1_13_0"/>

    <connection from="E1_to_J1" to="J1_to_N1" fromLane="0" toLane="0" via=":J1_5_0" tl="J1" linkIndex="5" dir="r" state="o"/>
    <connection from="E1_to_J1" to="J1_to_W1" fromLane="0" toLane="0" via=":J1_6_0" tl="J1" linkIndex="6" dir="s" state="o"/>
    <connection from="E1_to_J1" to="J1_to_W1" fromLane="1" toLane="1" via=":J1_6_1" tl="J1" linkIndex="7" dir="s" state="o"/>
    <connection from="E1_to_J1" to="J1_to_S1" fromLane="1" toLane="1" via=":J1_8_0" tl="J1" linkIndex="8" dir="l" state="o"/>
    <connection from="E1_to_J1" to="J1_to_E1" fromLane="1" toLane="1" via=":J1_9_0" tl="J1" linkIndex="9" dir="t" state="o"/>
    <connection from="J1_to_E1" to="E1_to_J1" fromLane="1" toLane="1" via=":E1_0_0" dir="t" state="M"/>
    <connection from="J1_to_N1" to="N1_to_J1" fromLane="1" toLane="1" via=":N1_0_0" dir="t" state="M"/>
    <connection from="J1_to_S1" to="S1_to_J1" fromLane="1" toLane="1" via=":S1_0_0" dir="t" state="M"/>
    <connection from="J1_to_W1" to="W1_to_J1" fromLane="1" toLane="1" via=":W1_0_0" dir="t" state="M"/>
    <connection from="N1_to_J1" to="J1_to_W1" fromLane="0" toLane="0" via=":J1_0_0" tl="J1" linkIndex="0" dir="r" state="O"/>
    <connection from="N1_to_J1" to="J1_to_S1" fromLane="0" toLane="0" via=":J1_1_0" tl="J1" linkIndex="1" dir="s" state="O"/>
    <connection from="N1_to_J1" to="J1_to_S1" fromLane="1" toLane="1" via=":J1_1_1" tl="J1" linkIndex="2" dir="s" state="O"/>
    <connection from="N1_to_J1" to="J1_to_E1" fromLane="1" toLane="1" via=":J1_3_0" tl="J1" linkIndex="3" dir="l" state="o"/>
    <connection from="N1_to_J1" to="J1_to_N1" fromLane="1" toLane="1" via=":J1_4_0" tl="J1" linkIndex="4" dir="t" state="o"/>
    <connection from="S1_to_J1" to="J1_to_E1" fromLane="0" toLane="0" via=":J1_10_0" tl="J1" linkIndex="10" dir="r" state="O"/>
    <connection from="S1_to_J1" to="J1_to_N1" fromLane="0" toLane="0" via=":J1_11_0" tl="J1" linkIndex="11" dir="s" state="O"/>
    <connection from="S1_to_J1" to="J1_to_N1" fromLane="1" toLane="1" via=":J1_11_1" tl="J1" linkIndex="12" dir="s" state="O"/>
    <connection from="S1_to_J1" to="J1_to_W1" fromLane="1" toLane="1" via=":J1_13_0" tl="J1" linkIndex="13" dir="l" state="o"/>
    <connection from="S1_to_J1" to="J1_to_S1" fromLane="1" toLane="1" via=":J1_14_0" tl="J1" linkIndex="14" dir="t" state="o"/>
    <connection from="W1_to_J1" to="J1_to_S1" fromLane="0" toLane="0" via=":J1_15_0" tl="J1" linkIndex="15" dir="r" state="o"/>
    <connection from="W1_to_J1" to="J1_to_E1" fromLane="0" toLane="0" via=":J1_16_0" tl="J1" linkIndex="16" dir="s" state="o"/>
    <connection from="W1_to_J1" to="J1_to_E1" fromLane="1" toLane="1" via=":J1_16_1" tl="J1" linkIndex="17" dir="s" state="o"/>
    <connection from="W1_to_J1" to="J1_to_N1" fromLane="1" toLane="1" via=":J1_18_0" tl="J1" linkIndex="18" dir="l" state="o"/>
    <connection from="W1_to_J1" to="J1_to_W1" fromLane="1" toLane="1" via=":J1_19_0" tl="J1" linkIndex="19" dir="t" state="o"/>

    <connection from=":E1_0" to="E1_to_J1" fromLane="0" toLane="1" dir="t" state="M"/>
    <connection from=":J1_0" to="J1_to_W1" fromLane="0" toLane="0" dir="r" state="M"/>
    <connection from=":J1_1" to="J1_to_S1" fromLane="0" toLane="0" dir="s" state="M"/>
    <connection from=":J1_1" to="J1_to_S1" fromLane="1" toLane="1" dir="s" state="M"/>
    <connection from=":J1_3" to="J1_to_E1" fromLane="0" toLane="1" via=":J1_20_0" dir="l" state="m"/>
    <connection from=":J1_20" to="J1_to_E1" fromLane="0" toLane="1" dir="l" state="M"/>
    <connection from=":J1_4" to="J1_to_N1" fromLane="0" toLane="1" via=":J1_21_0" dir="t" state="m"/>
    <connection from=":J1_21" to="J1_to_N1" fromLane="0" toLane="1" dir="t" state="M"/>
    <connection from=":J1_5" to="J1_to_N1" fromLane="0" toLane="0" dir="r" state="M"/>
    <connection from=":J1_6" to="J1_to_W1" fromLane="0" toLane="0" dir="s" state="M"/>
    <connection from=":J1_6" to="J1_to_W1" fromLane="1" toLane="1" dir="s" state="M"/>
    <connection from=":J1_8" to="J1_to_S1" fromLane="0" toLane="1" via=":J1_22_0" dir="l" state="m"/>
    <connection from=":J1_22" to="J1_to_S1" fromLane="0" toLane="1" dir="l" state="M"/>
    <connection from=":J1_9" to="J1_to_E1" fromLane="0" toLane="1" via=":J1_23_0" dir="t" state="m"/>
    <connection from=":J1_23" to="J1_to_E1" fromLane="0" toLane="1" dir="t" state="M"/>
    <connection from=":J1_10" to="J1_to_E1" fromLane="0" toLane="0" dir="r" state="M"/>
    <connection from=":J1_11" to="J1_to_N1" fromLane="0" toLane="0" dir="s" state="M"/>
    <connection from=":J1_11" to="J1_to_N1" fromLane="1" toLane="1" dir="s" state="M"/>
    <connection from=":J1_13" to="J1_to_W1" fromLane="0" toLane="1" via=":J1_24_0" dir="l" state="m"/>
    <connection from=":J1_24" to="J1_to_W1" fromLane="0" toLane="1" dir="l" state="M"/>
    <connection from=":J1_14" to="J1_to_S1" fromLane="0" toLane="1" via=":J1_25_0" dir="t" state="m"/>
    <connection from=":J1_25" to="J1_to_S1" fromLane="0" toLane="1" dir="t" state="M"/>
    <connection from=":J1_15" to="J1_to_S1" fromLane="0" toLane="0" dir="r" state="M"/>
    <connection from=":J1_16" to="J1_to_E1" fromLane="0" toLane="0" dir="s" state="M"/>
    <connection from=":J1_16" to="J1_to_E1" fromLane="1" toLane="1" dir="s" state="M"/>
    <connection from=":J1_18" to="J1_to_N1" fromLane="0" toLane="1" via=":J1_26_0" dir="l" state="m"/>
    <connection from=":J1_26" to="J1_to_N1" fromLane="0" toLane="1" dir="l" state="M"/>
    <connection from=":J1_19" to="J1_to_W1" fromLane="0" toLane="1" via=":J1_27_0" dir="t" state="m"/>
    <connection from=":J1_27" to="J1_to_W1" fromLane="0" toLane="1" dir="t" state="M"/>
    <connection from=":N1_0" to="N1_to_J1" fromLane="0" toLane="1" dir="t" state="M"/>
    <connection from=":S1_0" to="S1_to_J1" fromLane="0" toLane="1" dir="t" state="M"/>
    <connection from=":W1_0" to="W1_to_J1" fromLane="0" toLane="1" dir="t" state="M"/>

</net>
