<additional>
    <tlLogic id="J1" type="static" programID="rl_program">
        <phase duration="10" state="GGGggrrrrrGGGggrrrrr"/>
        <phase duration="4"  state="yyyyrrrrrryyyyrrrrrr"/>
        <phase duration="10" state="rrrrrGGGggrrrrrGGGgg"/>
        <phase duration="4"  state="rrrrryyyyyrrrrryyyyy"/>
    </tlLogic>

    <laneAreaDetector id="det_N_0" lane="N1_to_J1_0" pos="400" length="100" freq="1" file="detector_output.xml"/>
    <laneAreaDetector id="det_N_1" lane="N1_to_J1_1" pos="400" length="100" freq="1" file="detector_output.xml"/>
    <laneAreaDetector id="det_S_0" lane="S1_to_J1_0" pos="400" length="100" freq="1" file="detector_output.xml"/>
    <laneAreaDetector id="det_S_1" lane="S1_to_J1_1" pos="400" length="100" freq="1" file="detector_output.xml"/>
    <laneAreaDetector id="det_E_0" lane="E1_to_J1_0" pos="400" length="100" freq="1" file="detector_output.xml"/>
    <laneAreaDetector id="det_E_1" lane="E1_to_J1_1" pos="400" length="100" freq="1" file="detector_output.xml"/>
    <laneAreaDetector id="det_W_0" lane="W1_to_J1_0" pos="400" length="100" freq="1" file="detector_output.xml"/>
    <laneAreaDetector id="det_W_1" lane="W1_to_J1_1" pos="400" length="100" freq="1" file="detector_output.xml"/>
</additional>