<edges>
    <edge id="N1_to_J1" from="N1" to="J1" numLanes="2" speed="13.9" />
    <edge id="J1_to_N1" from="J1" to="N1" numLanes="2" speed="13.9" />

    <edge id="S1_to_J1" from="S1" to="J1" numLanes="2" speed="13.9" />
    <edge id="J1_to_S1" from="J1" to="S1" numLanes="2" speed="13.9" />

    <edge id="E1_to_J1" from="E1" to="J1" numLanes="2" speed="13.9" />
    <edge id="J1_to_E1" from="J1" to="E1" numLanes="2" speed="13.9" />

    <edge id="W1_to_J1" from="W1" to="J1" numLanes="2" speed="13.9" />
    <edge id="J1_to_W1" from="J1" to="W1" numLanes="2" speed="13.9" />
</edges>