<nodes>
    <node id="J1" x="0" y="0" type="traffic_light"/>

    <node id="N1" x="0" y="500" />
    <node id="S1" x="0" y="-500" />
    <node id="E1" x="500" y="0" />
    <node id="W1" x="-500" y="0" />
</nodes>