<?xml version="1.0" encoding="UTF-8"?>

<!-- generated on 2025-09-25 17:52:36.665809 by randomTrips.py v1_24_0+0000-b72eb3fabc8
<configuration>
    <net-file value="bhuvaneshwar.net.xml"/>
    <trip-attributes value="type=&quot;mixed_traffic&quot;"/>
    <end value="600.0"/>
    <period value="1.0"/>
</configuration>
-->

<!-- generated on 2025-09-25 17:52:36 by Eclipse SUMO duarouter Version 1.24.0
<duarouterConfiguration xmlns:xsi="http://www.w3.org/2001/XMLSchema-instance" xsi:noNamespaceSchemaLocation="http://sumo.dlr.de/xsd/duarouterConfiguration.xsd">

    <input>
        <net-file value="bhuvaneshwar.net.xml"/>
        <route-files value="trips.trips.xml"/>
    </input>

    <output>
        <output-file value="routes.rou.xml"/>
        <alternatives-output value="NUL"/>
    </output>

    <time>
        <begin value="0"/>
        <end value="600.0"/>
    </time>

    <report>
        <no-warnings value="true"/>
        <ignore-errors value="true"/>
        <no-step-log value="true"/>
    </report>

</duarouterConfiguration>
-->

<routes xmlns:xsi="http://www.w3.org/2001/XMLSchema-instance" xsi:noNamespaceSchemaLocation="http://sumo.dlr.de/xsd/routes_file.xsd">
    <vehicle id="0" type="mixed_traffic" depart="0.00">
        <route edges="367960615#0 -367960615#0 -26754896#1 -26754896#0"/>
    </vehicle>
    <vehicle id="1" type="mixed_traffic" depart="1.00">
        <route edges="-367960615#1 -367960615#0 26754896#2 26754896#3 478215121#1 478215121#2 1210202901#0"/>
    </vehicle>
    <vehicle id="2" type="mixed_traffic" depart="2.00">
        <route edges="478215121#0 -26754896#3 -26754896#2 367960615#0 367960615#1"/>
    </vehicle>
    <vehicle id="3" type="mixed_traffic" depart="3.00">
        <route edges="478215122#1 478215122#2 -26754896#2"/>
    </vehicle>
    <vehicle id="4" type="mixed_traffic" depart="4.00">
        <route edges="-367960615#0 26754896#2 26754896#3"/>
    </vehicle>
    <vehicle id="5" type="mixed_traffic" depart="5.00">
        <route edges="478215120#0 478215120#1 478215122#0 1210202900 26764944#0"/>
    </vehicle>
    <vehicle id="6" type="mixed_traffic" depart="6.00">
        <route edges="-367960615#0 26754896#2 26754896#3 478215121#1 478215121#2 26764944#0 26764944#1"/>
    </vehicle>
    <vehicle id="7" type="mixed_traffic" depart="7.00">
        <route edges="478215121#2 1210202901#0 506619635#1 478215122#0 478215122#1 478215122#2 -26754896#2 -26754896#1 -26754896#0"/>
    </vehicle>
    <vehicle id="8" type="mixed_traffic" depart="8.00">
        <route edges="1210202900 1210202901#0 506619635#1 478215122#0 478215122#1 478215122#2 -26754896#2 367960615#0 -367960615#0"/>
    </vehicle>
    <vehicle id="9" type="mixed_traffic" depart="9.00">
        <route edges="506619635#0 506619635#1 478215122#0 1210202900 26764944#0 26754676"/>
    </vehicle>
    <vehicle id="10" type="mixed_traffic" depart="10.00">
        <route edges="-26754890 26754896#1 26754896#2 -26754896#2"/>
    </vehicle>
    <vehicle id="11" type="mixed_traffic" depart="11.00">
        <route edges="478215122#0 1210202900 26764944#0 26764944#1"/>
    </vehicle>
    <vehicle id="12" type="mixed_traffic" depart="12.00">
        <route edges="478215121#2 1210202901#0 506619635#1 478215122#0 478215122#1 478215122#2 26754896#3 478215121#1"/>
    </vehicle>
    <vehicle id="13" type="mixed_traffic" depart="13.00">
        <route edges="26754896#3 -26754896#3 -26754896#2 367960615#0 870326483"/>
    </vehicle>
    <vehicle id="14" type="mixed_traffic" depart="14.00">
        <route edges="1210202901#0 506619635#1 478215122#0 1210202900 26764944#0"/>
    </vehicle>
    <vehicle id="15" type="mixed_traffic" depart="15.00">
        <route edges="478215122#0 478215122#1 478215122#2 -26754896#2 367960615#0"/>
    </vehicle>
    <vehicle id="16" type="mixed_traffic" depart="16.00">
        <route edges="478215122#1 478215122#2 26754896#3 478215121#1 478215121#2 26764944#0 26764944#1"/>
    </vehicle>
    <vehicle id="17" type="mixed_traffic" depart="17.00">
        <route edges="478215120#1 478215122#0 478215122#1 478215122#2 -26754896#2 -26754896#1"/>
    </vehicle>
    <vehicle id="18" type="mixed_traffic" depart="18.00">
        <route edges="-367960615#0 26754896#2 26754896#3 478215121#1 478215121#2 1210202901#0 1210202901#1 1210202901#2"/>
    </vehicle>
    <vehicle id="19" type="mixed_traffic" depart="19.00">
        <route edges="-26754890 26754896#1 26754896#2 26754896#3 478215121#1 478215121#2 1210202901#0"/>
    </vehicle>
    <vehicle id="20" type="mixed_traffic" depart="20.00">
        <route edges="-26754890 26754896#1 26754896#2 26754896#3 478215121#1 478215121#2 1210202901#0 1210202901#1"/>
    </vehicle>
    <vehicle id="21" type="mixed_traffic" depart="21.00">
        <route edges="367960615#0 -367960615#0 26754896#2 26754896#3 478215121#1 26754716"/>
    </vehicle>
    <vehicle id="22" type="mixed_traffic" depart="22.00">
        <route edges="1210202901#0 506619635#1 478215122#0 1210202900"/>
    </vehicle>
    <vehicle id="23" type="mixed_traffic" depart="23.00">
        <route edges="-367960615#1 -367960615#0 26754896#2 26754896#3 478215121#1 478215121#2 1210202901#0 506619635#1"/>
    </vehicle>
    <vehicle id="24" type="mixed_traffic" depart="24.00">
        <route edges="478215120#0 478215120#1 478215122#0 478215122#1 478215122#2 -26754896#2 367960615#0"/>
    </vehicle>
    <vehicle id="25" type="mixed_traffic" depart="25.00">
        <route edges="-26754896#2 26754896#2 26754896#3 478215121#1"/>
    </vehicle>
    <vehicle id="26" type="mixed_traffic" depart="26.00">
        <route edges="-26754896#2 26754896#2 26754896#3 478215121#1 26754716"/>
    </vehicle>
    <vehicle id="27" type="mixed_traffic" depart="27.00">
        <route edges="506619635#1 478215122#0 478215122#1 478215122#2 -26754896#2 367960615#0"/>
    </vehicle>
    <vehicle id="28" type="mixed_traffic" depart="28.00">
        <route edges="478215122#0 478215122#1 478215122#2 26754896#3 478215121#1 478215121#2"/>
    </vehicle>
    <vehicle id="29" type="mixed_traffic" depart="29.00">
        <route edges="-367960615#0 -26754896#1 -26754896#0"/>
    </vehicle>
    <vehicle id="30" type="mixed_traffic" depart="30.00">
        <route edges="-870326483 -367960615#0 26754896#2 26754896#3 478215121#1 478215121#2 1210202901#0 1210202901#1"/>
    </vehicle>
    <vehicle id="31" type="mixed_traffic" depart="31.00">
        <route edges="-26754896#3 26754896#3 478215121#1 478215121#2 1210202901#0 506619635#1"/>
    </vehicle>
    <vehicle id="32" type="mixed_traffic" depart="32.00">
        <route edges="478215122#1 478215122#2 26754896#3 478215121#1 478215121#2 1210202901#0 1210202901#1 1210202901#2"/>
    </vehicle>
    <vehicle id="33" type="mixed_traffic" depart="33.00">
        <route edges="478215120#0 478215120#1 478215122#0 478215122#1 478215122#2 -26754896#2 -26754896#1 26754890"/>
    </vehicle>
    <vehicle id="34" type="mixed_traffic" depart="34.00">
        <route edges="478215122#2 -26754896#2 -26754896#1 26754896#1"/>
    </vehicle>
    <vehicle id="35" type="mixed_traffic" depart="35.00">
        <route edges="-367960615#1 -367960615#0 26754896#2 26754896#3 478215121#1 478215121#2 1210202901#0"/>
    </vehicle>
    <vehicle id="36" type="mixed_traffic" depart="36.00">
        <route edges="26754896#3 478215121#1 478215121#2 1210202901#0 1210202901#1"/>
    </vehicle>
    <vehicle id="37" type="mixed_traffic" depart="37.00">
        <route edges="506619635#1 478215122#0 478215122#1 478215122#2 26754896#3"/>
    </vehicle>
    <vehicle id="38" type="mixed_traffic" depart="38.00">
        <route edges="-26754890 26754896#1 -26754896#1"/>
    </vehicle>
    <vehicle id="39" type="mixed_traffic" depart="39.00">
        <route edges="-26754896#1 26754896#1 367960615#0"/>
    </vehicle>
    <vehicle id="40" type="mixed_traffic" depart="40.00">
        <route edges="478215121#2 1210202901#0 506619635#1 478215122#0 478215122#1 478215122#2 -26754896#2 -26754896#1 26754890"/>
    </vehicle>
    <vehicle id="41" type="mixed_traffic" depart="41.00">
        <route edges="-26754716 26754716"/>
    </vehicle>
    <vehicle id="42" type="mixed_traffic" depart="42.00">
        <route edges="506619635#1 478215122#0 478215122#1 478215122#2 26754896#3"/>
    </vehicle>
    <vehicle id="43" type="mixed_traffic" depart="43.00">
        <route edges="506619635#1 478215122#0 478215122#1 478215122#2"/>
    </vehicle>
    <vehicle id="44" type="mixed_traffic" depart="44.00">
        <route edges="478215120#1 478215122#0 1210202900 26764944#0"/>
    </vehicle>
    <vehicle id="45" type="mixed_traffic" depart="45.00">
        <route edges="-367960615#1 -367960615#0 367960615#0"/>
    </vehicle>
    <vehicle id="46" type="mixed_traffic" depart="46.00">
        <route edges="-26754896#1 26754896#1"/>
    </vehicle>
    <vehicle id="47" type="mixed_traffic" depart="47.00">
        <route edges="26754896#0 26754896#1 26754896#2 26754896#3 478215121#1 478215121#2 1210202901#0 506619635#1"/>
    </vehicle>
    <vehicle id="48" type="mixed_traffic" depart="48.00">
        <route edges="478215122#1 478215122#2 26754896#3 478215121#1 478215121#2 1210202901#0 1210202901#1"/>
    </vehicle>
    <vehicle id="49" type="mixed_traffic" depart="49.00">
        <route edges="26754896#2 26754896#3 478215121#1 478215121#2 1210202901#0 506619635#1 478215122#0 1210202900"/>
    </vehicle>
    <vehicle id="50" type="mixed_traffic" depart="50.00">
        <route edges="478215122#2"/>
    </vehicle>
    <vehicle id="51" type="mixed_traffic" depart="51.00">
        <route edges="-870326483 -367960615#0 367960615#0"/>
    </vehicle>
    <vehicle id="52" type="mixed_traffic" depart="52.00">
        <route edges="367960615#0 -367960615#0"/>
    </vehicle>
    <vehicle id="53" type="mixed_traffic" depart="53.00">
        <route edges="478215121#1 478215121#2 26764944#0"/>
    </vehicle>
    <vehicle id="54" type="mixed_traffic" depart="54.00">
        <route edges="478215121#1 478215121#2 1210202901#0 506619635#1 478215122#0 478215122#1 478215122#2 26754896#3"/>
    </vehicle>
    <vehicle id="55" type="mixed_traffic" depart="55.00">
        <route edges="-26754676 26754676"/>
    </vehicle>
    <vehicle id="56" type="mixed_traffic" depart="56.00">
        <route edges="478215122#1"/>
    </vehicle>
    <vehicle id="57" type="mixed_traffic" depart="57.00">
        <route edges="-870326483 -367960615#0 -26754896#1"/>
    </vehicle>
    <vehicle id="58" type="mixed_traffic" depart="58.00">
        <route edges="478215122#1 478215122#2 26754896#3 478215121#1 478215121#2 1210202901#0 506619635#1"/>
    </vehicle>
    <vehicle id="59" type="mixed_traffic" depart="59.00">
        <route edges="-26754890 26754896#1 26754896#2"/>
    </vehicle>
    <vehicle id="60" type="mixed_traffic" depart="60.00">
        <route edges="-26754716 478215121#2"/>
    </vehicle>
    <vehicle id="61" type="mixed_traffic" depart="61.00">
        <route edges="478215121#1 478215121#2 1210202901#0 506619635#1 478215122#0 478215122#1 478215122#2 26754896#3 -26754896#3"/>
    </vehicle>
    <vehicle id="62" type="mixed_traffic" depart="62.00">
        <route edges="26754896#1 26754896#2 26754896#3 478215121#1 478215121#2 26764944#0"/>
    </vehicle>
    <vehicle id="63" type="mixed_traffic" depart="63.00">
        <route edges="-367960615#1 -367960615#0 26754896#2 26754896#3 478215121#1 478215121#2 1210202901#0 506619635#1 478215122#0 478215122#1 478215122#2"/>
    </vehicle>
    <vehicle id="64" type="mixed_traffic" depart="64.00">
        <route edges="26754896#3 478215121#1"/>
    </vehicle>
    <vehicle id="65" type="mixed_traffic" depart="65.00">
        <route edges="-26754896#3 26754896#3 478215121#1 478215121#2 1210202901#0 1210202901#1 1210202901#2"/>
    </vehicle>
    <vehicle id="66" type="mixed_traffic" depart="66.00">
        <route edges="506619635#1 478215122#0 478215122#1 478215122#2 -26754896#2 367960615#0 367960615#1"/>
    </vehicle>
    <vehicle id="67" type="mixed_traffic" depart="67.00">
        <route edges="26754896#0 26754896#1 26754896#2 26754896#3"/>
    </vehicle>
    <vehicle id="68" type="mixed_traffic" depart="68.00">
        <route edges="-26754896#1 26754896#1 26754896#2 26754896#3 478215121#1 478215121#2 1210202901#0"/>
    </vehicle>
    <vehicle id="69" type="mixed_traffic" depart="69.00">
        <route edges="1210202900 26764944#0 26764944#1"/>
    </vehicle>
    <vehicle id="70" type="mixed_traffic" depart="70.00">
        <route edges="-367960615#0 26754896#2 26754896#3 478215121#1 478215121#2 1210202901#0"/>
    </vehicle>
    <vehicle id="71" type="mixed_traffic" depart="71.00">
        <route edges="-26754716 478215121#2 1210202901#0 506619635#1 478215122#0 478215122#1 478215122#2 -26754896#2 367960615#0"/>
    </vehicle>
    <vehicle id="72" type="mixed_traffic" depart="72.00">
        <route edges="-367960615#0 26754896#2 478215122#3"/>
    </vehicle>
    <vehicle id="73" type="mixed_traffic" depart="73.00">
        <route edges="478215122#1 478215122#2 -26754896#2 -26754896#1"/>
    </vehicle>
    <vehicle id="74" type="mixed_traffic" depart="74.00">
        <route edges="-367960615#0 367960615#0 367960615#1"/>
    </vehicle>
    <vehicle id="75" type="mixed_traffic" depart="75.00">
        <route edges="-26754896#3"/>
    </vehicle>
    <vehicle id="76" type="mixed_traffic" depart="76.00">
        <route edges="506619635#0 506619635#1 478215122#0 1210202900 26764944#0"/>
    </vehicle>
    <vehicle id="77" type="mixed_traffic" depart="77.00">
        <route edges="26754896#1 26754896#2 26754896#3 478215121#1 478215121#2"/>
    </vehicle>
    <vehicle id="78" type="mixed_traffic" depart="78.00">
        <route edges="478215121#2 1210202901#0 506619635#1 478215122#0 1210202900"/>
    </vehicle>
    <vehicle id="79" type="mixed_traffic" depart="79.00">
        <route edges="-26754890 26754896#1"/>
    </vehicle>
    <vehicle id="80" type="mixed_traffic" depart="80.00">
        <route edges="478215121#0 -26754896#3 -26754896#2 367960615#0 367960615#1"/>
    </vehicle>
    <vehicle id="81" type="mixed_traffic" depart="81.00">
        <route edges="506619635#1 478215122#0 478215122#1 478215122#2 -26754896#2"/>
    </vehicle>
    <vehicle id="82" type="mixed_traffic" depart="82.00">
        <route edges="478215122#1 478215122#2 26754896#3 478215121#1 478215121#2 1210202901#0"/>
    </vehicle>
    <vehicle id="83" type="mixed_traffic" depart="83.00">
        <route edges="-26754896#3 -26754896#2 -26754896#1 26754896#1"/>
    </vehicle>
    <vehicle id="84" type="mixed_traffic" depart="84.00">
        <route edges="1210202901#1"/>
    </vehicle>
    <vehicle id="85" type="mixed_traffic" depart="85.00">
        <route edges="-367960615#0 26754896#2 478215122#3"/>
    </vehicle>
    <vehicle id="86" type="mixed_traffic" depart="86.00">
        <route edges="26754896#0 26754896#1 26754896#2 26754896#3 478215121#1 478215121#2 1210202901#0 506619635#1 478215122#0 478215122#1 478215122#2"/>
    </vehicle>
    <vehicle id="87" type="mixed_traffic" depart="87.00">
        <route edges="26754896#3 -26754896#3 -26754896#2 -26754896#1"/>
    </vehicle>
    <vehicle id="88" type="mixed_traffic" depart="88.00">
        <route edges="506619635#1 478215122#0 478215122#1"/>
    </vehicle>
    <vehicle id="89" type="mixed_traffic" depart="89.00">
        <route edges="506619635#1 478215122#0 478215122#1 478215122#2 478215122#3"/>
    </vehicle>
    <vehicle id="90" type="mixed_traffic" depart="90.00">
        <route edges="478215122#0 478215122#1 478215122#2 -26754896#2 367960615#0 -367960615#0"/>
    </vehicle>
    <vehicle id="91" type="mixed_traffic" depart="91.00">
        <route edges="26754896#1 26754896#2 26754896#3 478215121#1 478215121#2 1210202901#0 506619635#1 478215122#0 1210202900"/>
    </vehicle>
    <vehicle id="92" type="mixed_traffic" depart="92.00">
        <route edges="1210202901#0 506619635#1 478215122#0 478215122#1 478215122#2 -26754896#2 367960615#0 870326483"/>
    </vehicle>
    <vehicle id="93" type="mixed_traffic" depart="93.00">
        <route edges="-367960615#1 -367960615#0 26754896#2 26754896#3 478215121#1 478215121#2"/>
    </vehicle>
    <vehicle id="94" type="mixed_traffic" depart="94.00">
        <route edges="26754896#0 26754890"/>
    </vehicle>
    <vehicle id="95" type="mixed_traffic" depart="95.00">
        <route edges="506619635#0 506619635#1 478215122#0 478215122#1 478215122#2 -26754896#2 367960615#0 870326483"/>
    </vehicle>
    <vehicle id="96" type="mixed_traffic" depart="96.00">
        <route edges="26754896#3 478215121#1"/>
    </vehicle>
    <vehicle id="97" type="mixed_traffic" depart="97.00">
        <route edges="-26754896#2 26754896#2 26754896#3 478215121#1 478215121#2 1210202901#0 1210202901#1 1210202901#2"/>
    </vehicle>
    <vehicle id="98" type="mixed_traffic" depart="98.00">
        <route edges="506619635#1 478215122#0 1210202900 26764944#0 26764944#1"/>
    </vehicle>
    <vehicle id="99" type="mixed_traffic" depart="99.00">
        <route edges="26754896#3 478215121#1"/>
    </vehicle>
    <vehicle id="100" type="mixed_traffic" depart="100.00">
        <route edges="-26754716 478215121#2 26764944#0 26764944#1"/>
    </vehicle>
    <vehicle id="101" type="mixed_traffic" depart="101.00">
        <route edges="26754896#2 26754896#3 478215121#1 478215121#2 1210202901#0 506619635#1 478215122#0 478215122#1"/>
    </vehicle>
    <vehicle id="102" type="mixed_traffic" depart="102.00">
        <route edges="-26754896#2 26754896#2 26754896#3 478215121#1 478215121#2 1210202901#0 506619635#1"/>
    </vehicle>
    <vehicle id="103" type="mixed_traffic" depart="103.00">
        <route edges="-26754890 26754896#1 26754896#2 26754896#3 478215121#1 478215121#2 1210202901#0 506619635#1 478215122#0 1210202900"/>
    </vehicle>
    <vehicle id="104" type="mixed_traffic" depart="104.00">
        <route edges="-367960615#0 26754896#2 26754896#3 -26754896#3"/>
    </vehicle>
    <vehicle id="105" type="mixed_traffic" depart="105.00">
        <route edges="478215122#1 478215122#2 26754896#3 478215121#1 478215121#2 1210202901#0"/>
    </vehicle>
    <vehicle id="106" type="mixed_traffic" depart="106.00">
        <route edges="26754896#2 26754896#3 478215121#1 478215121#2 1210202901#0 506619635#1"/>
    </vehicle>
    <vehicle id="107" type="mixed_traffic" depart="107.00">
        <route edges="-26754896#3 26754896#3 478215121#1"/>
    </vehicle>
    <vehicle id="108" type="mixed_traffic" depart="108.00">
        <route edges="-367960615#0 -26754896#1 26754890"/>
    </vehicle>
    <vehicle id="109" type="mixed_traffic" depart="109.00">
        <route edges="478215120#0 478215120#1 478215122#0 1210202900 1210202901#0 1210202901#1 1210202901#2"/>
    </vehicle>
    <vehicle id="110" type="mixed_traffic" depart="110.00">
        <route edges="-870326483 -367960615#0 26754896#2 26754896#3 478215121#1 478215121#2"/>
    </vehicle>
    <vehicle id="111" type="mixed_traffic" depart="111.00">
        <route edges="-26754890 26754896#1"/>
    </vehicle>
    <vehicle id="112" type="mixed_traffic" depart="112.00">
        <route edges="506619635#1 478215122#0 478215122#1 478215122#2 -26754896#2 367960615#0 870326483"/>
    </vehicle>
    <vehicle id="113" type="mixed_traffic" depart="113.00">
        <route edges="-26754890 26754896#1 26754896#2 26754896#3 478215121#1 478215121#2 1210202901#0 506619635#1 478215122#0 1210202900"/>
    </vehicle>
    <vehicle id="114" type="mixed_traffic" depart="114.00">
        <route edges="-367960615#1 -367960615#0 26754896#2 26754896#3 478215121#1 478215121#2 1210202901#0 506619635#1"/>
    </vehicle>
    <vehicle id="115" type="mixed_traffic" depart="115.00">
        <route edges="478215122#1 478215122#2"/>
    </vehicle>
    <vehicle id="116" type="mixed_traffic" depart="116.00">
        <route edges="1210202901#0 506619635#1 478215122#0 478215122#1 478215122#2 -26754896#2 367960615#0 -367960615#0"/>
    </vehicle>
    <vehicle id="117" type="mixed_traffic" depart="117.00">
        <route edges="367960615#0 870326483"/>
    </vehicle>
    <vehicle id="118" type="mixed_traffic" depart="118.00">
        <route edges="478215120#0 478215120#1 478215122#0 478215122#1 478215122#2 -26754896#2 -26754896#1 -26754896#0"/>
    </vehicle>
    <vehicle id="119" type="mixed_traffic" depart="119.00">
        <route edges="478215121#2 1210202901#0 1210202901#1 1210202901#2"/>
    </vehicle>
    <vehicle id="120" type="mixed_traffic" depart="120.00">
        <route edges="478215120#0 478215120#1 478215122#0 1210202900 1210202901#0 506619635#1"/>
    </vehicle>
    <vehicle id="121" type="mixed_traffic" depart="121.00">
        <route edges="-26754896#1 26754896#1 26754896#2 26754896#3 -26754896#3"/>
    </vehicle>
    <vehicle id="122" type="mixed_traffic" depart="122.00">
        <route edges="-26754890 26754896#1 26754896#2 26754896#3 478215121#1 478215121#2 26764944#0"/>
    </vehicle>
    <vehicle id="123" type="mixed_traffic" depart="123.00">
        <route edges="-367960615#1 -367960615#0 26754896#2 26754896#3 478215121#1 478215121#2 26764944#0 26764944#1"/>
    </vehicle>
    <vehicle id="124" type="mixed_traffic" depart="124.00">
        <route edges="478215121#0 478215121#1 478215121#2 1210202901#0 506619635#1 478215122#0 1210202900"/>
    </vehicle>
    <vehicle id="125" type="mixed_traffic" depart="125.00">
        <route edges="367960615#0 -367960615#0 26754896#2 26754896#3 478215121#1 478215121#2 1210202901#0 1210202901#1"/>
    </vehicle>
    <vehicle id="126" type="mixed_traffic" depart="126.00">
        <route edges="26754896#1 26754896#2 478215122#3"/>
    </vehicle>
    <vehicle id="127" type="mixed_traffic" depart="127.00">
        <route edges="478215122#0 478215122#1 478215122#2 -26754896#2"/>
    </vehicle>
    <vehicle id="128" type="mixed_traffic" depart="128.00">
        <route edges="1210202901#1"/>
    </vehicle>
    <vehicle id="129" type="mixed_traffic" depart="129.00">
        <route edges="367960615#0 -367960615#0 26754896#2 26754896#3 478215121#1 478215121#2 1210202901#0 1210202901#1"/>
    </vehicle>
    <vehicle id="130" type="mixed_traffic" depart="130.00">
        <route edges="478215121#0 478215121#1 478215121#2 26764944#0"/>
    </vehicle>
    <vehicle id="131" type="mixed_traffic" depart="131.00">
        <route edges="-26754890 26754896#1 26754896#2 26754896#3 478215121#1 478215121#2 1210202901#0 506619635#1 478215122#0 478215122#1 478215122#2"/>
    </vehicle>
    <vehicle id="132" type="mixed_traffic" depart="132.00">
        <route edges="478215122#2 26754896#3 478215121#1 478215121#2 26764944#0"/>
    </vehicle>
    <vehicle id="133" type="mixed_traffic" depart="133.00">
        <route edges="478215122#0 1210202900 26764944#0 26764944#1"/>
    </vehicle>
    <vehicle id="134" type="mixed_traffic" depart="134.00">
        <route edges="-26754896#2 26754896#2 26754896#3 -26754896#3"/>
    </vehicle>
    <vehicle id="135" type="mixed_traffic" depart="135.00">
        <route edges="-870326483 -367960615#0 26754896#2 478215122#3"/>
    </vehicle>
    <vehicle id="136" type="mixed_traffic" depart="136.00">
        <route edges="478215121#2 1210202901#0 506619635#1 478215122#0 478215122#1 478215122#2"/>
    </vehicle>
    <vehicle id="137" type="mixed_traffic" depart="137.00">
        <route edges="478215122#2 26754896#3 478215121#1 478215121#2 1210202901#0 506619635#1 478215122#0 1210202900"/>
    </vehicle>
    <vehicle id="138" type="mixed_traffic" depart="138.00">
        <route edges="-367960615#0 26754896#2 -26754896#2"/>
    </vehicle>
    <vehicle id="139" type="mixed_traffic" depart="139.00">
        <route edges="478215121#1 478215121#2 1210202901#0 506619635#1 478215122#0 478215122#1 478215122#2"/>
    </vehicle>
    <vehicle id="140" type="mixed_traffic" depart="140.00">
        <route edges="-26754896#2 26754896#2 26754896#3 478215121#1 478215121#2 1210202901#0 506619635#1"/>
    </vehicle>
    <vehicle id="141" type="mixed_traffic" depart="141.00">
        <route edges="478215122#1 478215122#2 -26754896#2 367960615#0 870326483"/>
    </vehicle>
    <vehicle id="142" type="mixed_traffic" depart="142.00">
        <route edges="478215121#2 1210202901#0 506619635#1 478215122#0 478215122#1 478215122#2"/>
    </vehicle>
    <vehicle id="143" type="mixed_traffic" depart="143.00">
        <route edges="1210202900 1210202901#0 506619635#1"/>
    </vehicle>
    <vehicle id="144" type="mixed_traffic" depart="144.00">
        <route edges="478215121#2 1210202901#0 506619635#1 478215122#0 478215122#1 478215122#2"/>
    </vehicle>
    <vehicle id="145" type="mixed_traffic" depart="145.00">
        <route edges="478215121#2 1210202901#0 1210202901#1"/>
    </vehicle>
    <vehicle id="146" type="mixed_traffic" depart="146.00">
        <route edges="478215121#2 1210202901#0 506619635#1 478215122#0 478215122#1 478215122#2 26754896#3 -26754896#3"/>
    </vehicle>
    <vehicle id="147" type="mixed_traffic" depart="147.00">
        <route edges="478215122#1 478215122#2"/>
    </vehicle>
    <vehicle id="148" type="mixed_traffic" depart="148.00">
        <route edges="-367960615#0 26754896#2 26754896#3 478215121#1 478215121#2 1210202901#0 506619635#1 478215122#0"/>
    </vehicle>
    <vehicle id="149" type="mixed_traffic" depart="149.00">
        <route edges="26754896#0 26754896#1 26754896#2 26754896#3 478215121#1 478215121#2 1210202901#0 1210202901#1 1210202901#2"/>
    </vehicle>
    <vehicle id="150" type="mixed_traffic" depart="150.00">
        <route edges="478215121#2 1210202901#0"/>
    </vehicle>
    <vehicle id="151" type="mixed_traffic" depart="151.00">
        <route edges="1210202900 1210202901#0 506619635#1 478215122#0 478215122#1 478215122#2"/>
    </vehicle>
    <vehicle id="152" type="mixed_traffic" depart="152.00">
        <route edges="506619635#1 478215122#0 1210202900 1210202901#0 1210202901#1"/>
    </vehicle>
    <vehicle id="153" type="mixed_traffic" depart="153.00">
        <route edges="367960615#0 -367960615#0 -26754896#1 26754890"/>
    </vehicle>
    <vehicle id="154" type="mixed_traffic" depart="154.00">
        <route edges="506619635#1 478215122#0 1210202900 26764944#0"/>
    </vehicle>
    <vehicle id="155" type="mixed_traffic" depart="155.00">
        <route edges="506619635#0 506619635#1 478215122#0 478215122#1 478215122#2 26754896#3 -26754896#3"/>
    </vehicle>
    <vehicle id="156" type="mixed_traffic" depart="156.00">
        <route edges="506619635#1 478215122#0 478215122#1 478215122#2 -26754896#2 367960615#0 -367960615#0"/>
    </vehicle>
    <vehicle id="157" type="mixed_traffic" depart="157.00">
        <route edges="506619635#0 1210202901#1"/>
    </vehicle>
    <vehicle id="158" type="mixed_traffic" depart="158.00">
        <route edges="-26754896#1 26754896#1"/>
    </vehicle>
    <vehicle id="159" type="mixed_traffic" depart="159.00">
        <route edges="478215121#0 478215121#1 478215121#2 1210202901#0 1210202901#1 1210202901#2"/>
    </vehicle>
    <vehicle id="160" type="mixed_traffic" depart="160.00">
        <route edges="1210202901#0 506619635#1 478215122#0 1210202900 26764944#0 26764944#1"/>
    </vehicle>
    <vehicle id="161" type="mixed_traffic" depart="161.00">
        <route edges="26754896#3 478215121#1"/>
    </vehicle>
    <vehicle id="162" type="mixed_traffic" depart="162.00">
        <route edges="478215121#0 -26754896#3 -26754896#2 367960615#0 367960615#1"/>
    </vehicle>
    <vehicle id="163" type="mixed_traffic" depart="163.00">
        <route edges="1210202901#0 506619635#1 478215122#0 478215122#1 478215122#2 -26754896#2 -26754896#1"/>
    </vehicle>
    <vehicle id="164" type="mixed_traffic" depart="164.00">
        <route edges="478215120#0 478215120#1 478215122#0 1210202900 26764944#0 26754676"/>
    </vehicle>
    <vehicle id="165" type="mixed_traffic" depart="165.00">
        <route edges="-870326483 -367960615#0 26754896#2 26754896#3 478215121#1 478215121#2 1210202901#0 506619635#1 478215122#0 478215122#1"/>
    </vehicle>
    <vehicle id="166" type="mixed_traffic" depart="166.00">
        <route edges="478215121#0 478215121#1 478215121#2 1210202901#0 1210202901#1 1210202901#2"/>
    </vehicle>
    <vehicle id="167" type="mixed_traffic" depart="167.00">
        <route edges="-870326483 -367960615#0 -26754896#1 26754890"/>
    </vehicle>
    <vehicle id="168" type="mixed_traffic" depart="168.00">
        <route edges="1210202901#1 1210202901#2"/>
    </vehicle>
    <vehicle id="169" type="mixed_traffic" depart="169.00">
        <route edges="-26754896#1 26754890"/>
    </vehicle>
    <vehicle id="170" type="mixed_traffic" depart="170.00">
        <route edges="506619635#0 506619635#1 478215122#0 478215122#1 478215122#2 -26754896#2 367960615#0 367960615#1"/>
    </vehicle>
    <vehicle id="171" type="mixed_traffic" depart="171.00">
        <route edges="478215122#2 -26754896#2 367960615#0"/>
    </vehicle>
    <vehicle id="172" type="mixed_traffic" depart="172.00">
        <route edges="-870326483 -367960615#0 26754896#2 26754896#3 478215121#1 478215121#2 26764944#0"/>
    </vehicle>
    <vehicle id="173" type="mixed_traffic" depart="173.00">
        <route edges="26754896#0 26754896#1 26754896#2 26754896#3 478215121#1 478215121#2 26764944#0 26764944#1"/>
    </vehicle>
    <vehicle id="174" type="mixed_traffic" depart="174.00">
        <route edges="478215120#0 478215120#1 478215122#0 478215122#1 478215122#2 -26754896#2 26754896#2"/>
    </vehicle>
    <vehicle id="175" type="mixed_traffic" depart="175.00">
        <route edges="26754896#0 26754896#1 26754896#2 26754896#3 478215121#1 478215121#2 1210202901#0 506619635#1 478215122#0 1210202900"/>
    </vehicle>
    <vehicle id="176" type="mixed_traffic" depart="176.00">
        <route edges="26754896#1 26754896#2 478215122#3"/>
    </vehicle>
    <vehicle id="177" type="mixed_traffic" depart="177.00">